/*---------------------------------------------------------------------------*\
| =========                 |                                                 |
| \\      /  F ield         | OpenFOAM: The Open Source CFD Toolbox           |
|  \\    /   O peration     | Version:  dev                                   |
|   \\  /    A nd           | Web:      www.OpenFOAM.org                      |
|    \\/     M anipulation  |                                                 |
\*---------------------------------------------------------------------------*/
Build  : dev-940e28f63681
Exec   : sonicFoam
Date   : Jul 22 2019
Time   : 14:51:40
Host   : "compute-3-1.local"
PID    : 5085
I/O    : uncollated
Case   : /home/z5146499/OpenFOAM/OpenFOAM-dev/tutorials/compressible/sonicFoam/laminar/shockTube
nProcs : 1
sigFpe : Enabling floating point exception trapping (FOAM_SIGFPE).
fileModificationChecking : Monitoring run-time modified files using timeStampMaster (fileModificationSkew 10)
allowSystemOperations : Allowing user-supplied system call operations

// * * * * * * * * * * * * * * * * * * * * * * * * * * * * * * * * * * * * * //
Create time

Create mesh for time = 0


PIMPLE: no residual control data found. Calculations will employ 2 corrector loops

Reading thermophysical properties

Selecting thermodynamics package 
{
    type            hePsiThermo;
    mixture         pureMixture;
    transport       const;
    thermo          hConst;
    equationOfState perfectGas;
    specie          specie;
    energy          sensibleInternalEnergy;
}

Reading field U

Reading/calculating face flux field phi

Creating turbulence model

Selecting turbulence model type laminar
Selecting laminar stress model Stokes
Creating field kinetic energy K

No MRF models present

No finite volume options present


Starting time loop

Time = 1e-05

Courant Number mean: 0 max: 0
diagonal:  Solving for rho, Initial residual = 0, Final residual = 0, No Iterations 0
PIMPLE: iteration 1
smoothSolver:  Solving for Ux, Initial residual = 1, Final residual = 3.1498e-17, No Iterations 1
smoothSolver:  Solving for e, Initial residual = 1.02267e-16, Final residual = 1.02267e-16, No Iterations 0
smoothSolver:  Solving for p, Initial residual = 0.000178178, Final residual = 6.5437e-17, No Iterations 6
diagonal:  Solving for rho, Initial residual = 0, Final residual = 0, No Iterations 0
time step continuity errors : sum local = 1.37656e-16, global = -9.60576e-17, cumulative = -9.60576e-17
PIMPLE: iteration 2
smoothSolver:  Solving for Ux, Initial residual = 0.0374577, Final residual = 1.11176e-17, No Iterations 1
smoothSolver:  Solving for e, Initial residual = 0.00110349, Final residual = 8.66085e-17, No Iterations 3
smoothSolver:  Solving for p, Initial residual = 9.51306e-05, Final residual = 9.76429e-16, No Iterations 5
diagonal:  Solving for rho, Initial residual = 0, Final residual = 0, No Iterations 0
time step continuity errors : sum local = 1.77036e-15, global = -4.91541e-16, cumulative = -5.87599e-16
ExecutionTime = 0.06 s  ClockTime = 0 s

Time = 2e-05

Courant Number mean: 0.000299366 max: 0.205934
diagonal:  Solving for rho, Initial residual = 0, Final residual = 0, No Iterations 0
PIMPLE: iteration 1
smoothSolver:  Solving for Ux, Initial residual = 0.130023, Final residual = 1.70864e-17, No Iterations 1
smoothSolver:  Solving for e, Initial residual = 0.000632523, Final residual = 9.95693e-17, No Iterations 3
smoothSolver:  Solving for p, Initial residual = 0.000385772, Final residual = 1.19224e-16, No Iterations 6
diagonal:  Solving for rho, Initial residual = 0, Final residual = 0, No Iterations 0
time step continuity errors : sum local = 2.55502e-16, global = -5.19117e-17, cumulative = -6.3951e-16
PIMPLE: iteration 2
smoothSolver:  Solving for Ux, Initial residual = 0.0260491, Final residual = 1.30832e-17, No Iterations 1
smoothSolver:  Solving for e, Initial residual = 0.000441808, Final residual = 1.36317e-16, No Iterations 4
smoothSolver:  Solving for p, Initial residual = 6.75216e-05, Final residual = 3.54601e-16, No Iterations 5
diagonal:  Solving for rho, Initial residual = 0, Final residual = 0, No Iterations 0
time step continuity errors : sum local = 6.68496e-16, global = -7.08808e-17, cumulative = -7.10391e-16
ExecutionTime = 0.07 s  ClockTime = 0 s

Time = 3e-05

Courant Number mean: 0.000622073 max: 0.294247
diagonal:  Solving for rho, Initial residual = 0, Final residual = 0, No Iterations 0
PIMPLE: iteration 1
smoothSolver:  Solving for Ux, Initial residual = 0.0708585, Final residual = 7.62748e-18, No Iterations 1
smoothSolver:  Solving for e, Initial residual = 0.000789139, Final residual = 2.30421e-16, No Iterations 4
smoothSolver:  Solving for p, Initial residual = 0.000389467, Final residual = 8.27825e-17, No Iterations 6
diagonal:  Solving for rho, Initial residual = 0, Final residual = 0, No Iterations 0
time step continuity errors : sum local = 1.82519e-16, global = -1.13172e-16, cumulative = -8.23563e-16
PIMPLE: iteration 2
smoothSolver:  Solving for Ux, Initial residual = 0.00637659, Final residual = 1.13347e-17, No Iterations 1
smoothSolver:  Solving for e, Initial residual = 0.000338288, Final residual = 1.82375e-16, No Iterations 5
smoothSolver:  Solving for p, Initial residual = 5.6011e-05, Final residual = 2.34491e-16, No Iterations 5
diagonal:  Solving for rho, Initial residual = 0, Final residual = 0, No Iterations 0
time step continuity errors : sum local = 4.40445e-16, global = 2.97521e-17, cumulative = -7.93811e-16
ExecutionTime = 0.08 s  ClockTime = 0 s

Time = 4e-05

Courant Number mean: 0.000797208 max: 0.280133
diagonal:  Solving for rho, Initial residual = 0, Final residual = 0, No Iterations 0
PIMPLE: iteration 1
smoothSolver:  Solving for Ux, Initial residual = 0.0497335, Final residual = 2.1772e-17, No Iterations 1
smoothSolver:  Solving for e, Initial residual = 0.000779087, Final residual = 1.39323e-16, No Iterations 5
smoothSolver:  Solving for p, Initial residual = 0.000349292, Final residual = 7.31753e-17, No Iterations 6
diagonal:  Solving for rho, Initial residual = 0, Final residual = 0, No Iterations 0
time step continuity errors : sum local = 1.64366e-16, global = -8.46316e-17, cumulative = -8.78442e-16
PIMPLE: iteration 2
smoothSolver:  Solving for Ux, Initial residual = 0.00408982, Final residual = 1.06219e-17, No Iterations 1
smoothSolver:  Solving for e, Initial residual = 0.0003104, Final residual = 5.04569e-16, No Iterations 6
smoothSolver:  Solving for p, Initial residual = 3.66659e-05, Final residual = 1.93463e-16, No Iterations 5
diagonal:  Solving for rho, Initial residual = 0, Final residual = 0, No Iterations 0
time step continuity errors : sum local = 3.77578e-16, global = -7.18454e-17, cumulative = -9.50288e-16
ExecutionTime = 0.09 s  ClockTime = 0 s

Time = 5e-05

Courant Number mean: 0.000993862 max: 0.270228
diagonal:  Solving for rho, Initial residual = 0, Final residual = 0, No Iterations 0
PIMPLE: iteration 1
smoothSolver:  Solving for Ux, Initial residual = 0.0384021, Final residual = 2.00048e-17, No Iterations 1
smoothSolver:  Solving for e, Initial residual = 0.000801621, Final residual = 1.82994e-16, No Iterations 6
smoothSolver:  Solving for p, Initial residual = 0.000341927, Final residual = 7.16586e-17, No Iterations 6
diagonal:  Solving for rho, Initial residual = 0, Final residual = 0, No Iterations 0
time step continuity errors : sum local = 1.69783e-16, global = -6.82345e-17, cumulative = -1.01852e-15
PIMPLE: iteration 2
smoothSolver:  Solving for Ux, Initial residual = 0.00320796, Final residual = 1.34923e-17, No Iterations 1
smoothSolver:  Solving for e, Initial residual = 0.0003175, Final residual = 3.45678e-16, No Iterations 6
smoothSolver:  Solving for p, Initial residual = 3.55307e-05, Final residual = 1.99988e-16, No Iterations 5
diagonal:  Solving for rho, Initial residual = 0, Final residual = 0, No Iterations 0
time step continuity errors : sum local = 3.98896e-16, global = -5.94795e-17, cumulative = -1.078e-15
ExecutionTime = 0.11 s  ClockTime = 0 s

Time = 6e-05

Courant Number mean: 0.00120186 max: 0.276727
diagonal:  Solving for rho, Initial residual = 0, Final residual = 0, No Iterations 0
PIMPLE: iteration 1
smoothSolver:  Solving for Ux, Initial residual = 0.0324784, Final residual = 2.17455e-17, No Iterations 1
smoothSolver:  Solving for e, Initial residual = 0.00082951, Final residual = 3.23846e-16, No Iterations 6
smoothSolver:  Solving for p, Initial residual = 0.000327792, Final residual = 8.27763e-17, No Iterations 6
diagonal:  Solving for rho, Initial residual = 0, Final residual = 0, No Iterations 0
time step continuity errors : sum local = 1.80516e-16, global = -3.42533e-17, cumulative = -1.11226e-15
PIMPLE: iteration 2
smoothSolver:  Solving for Ux, Initial residual = 0.00241635, Final residual = 1.84315e-17, No Iterations 1
smoothSolver:  Solving for e, Initial residual = 0.000302522, Final residual = 1.79354e-16, No Iterations 7
smoothSolver:  Solving for p, Initial residual = 3.4469e-05, Final residual = 2.94798e-16, No Iterations 5
diagonal:  Solving for rho, Initial residual = 0, Final residual = 0, No Iterations 0
time step continuity errors : sum local = 5.57945e-16, global = 1.50912e-16, cumulative = -9.61343e-16
ExecutionTime = 0.12 s  ClockTime = 0 s

Time = 7e-05

Courant Number mean: 0.00141502 max: 0.288407
diagonal:  Solving for rho, Initial residual = 0, Final residual = 0, No Iterations 0
PIMPLE: iteration 1
smoothSolver:  Solving for Ux, Initial residual = 0.0281061, Final residual = 1.75253e-17, No Iterations 1
smoothSolver:  Solving for e, Initial residual = 0.000853287, Final residual = 1.88368e-16, No Iterations 7
smoothSolver:  Solving for p, Initial residual = 0.000314112, Final residual = 9.74018e-17, No Iterations 6
diagonal:  Solving for rho, Initial residual = 0, Final residual = 0, No Iterations 0
time step continuity errors : sum local = 2.18108e-16, global = 1.31078e-18, cumulative = -9.60032e-16
PIMPLE: iteration 2
smoothSolver:  Solving for Ux, Initial residual = 0.00180736, Final residual = 1.51239e-17, No Iterations 1
smoothSolver:  Solving for e, Initial residual = 0.00026412, Final residual = 1.83007e-16, No Iterations 7
smoothSolver:  Solving for p, Initial residual = 3.17701e-05, Final residual = 5.13969e-16, No Iterations 5
diagonal:  Solving for rho, Initial residual = 0, Final residual = 0, No Iterations 0
time step continuity errors : sum local = 9.5605e-16, global = 5.41746e-16, cumulative = -4.18286e-16
ExecutionTime = 0.13 s  ClockTime = 0 s

Time = 8e-05

Courant Number mean: 0.00163068 max: 0.29237
diagonal:  Solving for rho, Initial residual = 0, Final residual = 0, No Iterations 0
PIMPLE: iteration 1
smoothSolver:  Solving for Ux, Initial residual = 0.0244631, Final residual = 1.32015e-17, No Iterations 1
smoothSolver:  Solving for e, Initial residual = 0.000868406, Final residual = 2.11032e-16, No Iterations 7
smoothSolver:  Solving for p, Initial residual = 0.000302686, Final residual = 1.16854e-16, No Iterations 6
diagonal:  Solving for rho, Initial residual = 0, Final residual = 0, No Iterations 0
time step continuity errors : sum local = 2.51298e-16, global = 3.87544e-17, cumulative = -3.79531e-16
PIMPLE: iteration 2
smoothSolver:  Solving for Ux, Initial residual = 0.0015036, Final residual = 1.69616e-17, No Iterations 1
smoothSolver:  Solving for e, Initial residual = 0.000249316, Final residual = 2.19295e-16, No Iterations 7
smoothSolver:  Solving for p, Initial residual = 3.02218e-05, Final residual = 9.94801e-16, No Iterations 5
diagonal:  Solving for rho, Initial residual = 0, Final residual = 0, No Iterations 0
time step continuity errors : sum local = 1.82195e-15, global = 1.33484e-15, cumulative = 9.55308e-16
ExecutionTime = 0.14 s  ClockTime = 0 s

Time = 9e-05

Courant Number mean: 0.00184721 max: 0.291956
diagonal:  Solving for rho, Initial residual = 0, Final residual = 0, No Iterations 0
PIMPLE: iteration 1
smoothSolver:  Solving for Ux, Initial residual = 0.0221302, Final residual = 1.89441e-17, No Iterations 1
smoothSolver:  Solving for e, Initial residual = 0.000895874, Final residual = 2.48853e-16, No Iterations 7
smoothSolver:  Solving for p, Initial residual = 0.000296799, Final residual = 1.30548e-16, No Iterations 6
diagonal:  Solving for rho, Initial residual = 0, Final residual = 0, No Iterations 0
time step continuity errors : sum local = 2.80481e-16, global = 6.06667e-17, cumulative = 1.01597e-15
PIMPLE: iteration 2
smoothSolver:  Solving for Ux, Initial residual = 0.00121695, Final residual = 2.05695e-17, No Iterations 1
smoothSolver:  Solving for e, Initial residual = 0.000228492, Final residual = 2.21719e-16, No Iterations 7
smoothSolver:  Solving for p, Initial residual = 2.75006e-05, Final residual = 5.46641e-17, No Iterations 6
diagonal:  Solving for rho, Initial residual = 0, Final residual = 0, No Iterations 0
time step continuity errors : sum local = 1.3412e-16, global = -5.14665e-17, cumulative = 9.64508e-16
ExecutionTime = 0.15 s  ClockTime = 0 s

Time = 0.0001

Courant Number mean: 0.00206422 max: 0.297426
diagonal:  Solving for rho, Initial residual = 0, Final residual = 0, No Iterations 0
PIMPLE: iteration 1
smoothSolver:  Solving for Ux, Initial residual = 0.0198571, Final residual = 1.29186e-17, No Iterations 1
smoothSolver:  Solving for e, Initial residual = 0.00091204, Final residual = 2.73089e-16, No Iterations 7
smoothSolver:  Solving for p, Initial residual = 0.0002934, Final residual = 1.37546e-16, No Iterations 6
diagonal:  Solving for rho, Initial residual = 0, Final residual = 0, No Iterations 0
time step continuity errors : sum local = 2.96161e-16, global = 7.10539e-17, cumulative = 1.03556e-15
PIMPLE: iteration 2
smoothSolver:  Solving for Ux, Initial residual = 0.00102481, Final residual = 2.05324e-17, No Iterations 1
smoothSolver:  Solving for e, Initial residual = 0.000217121, Final residual = 2.11999e-16, No Iterations 7
smoothSolver:  Solving for p, Initial residual = 2.71411e-05, Final residual = 5.52056e-17, No Iterations 6
diagonal:  Solving for rho, Initial residual = 0, Final residual = 0, No Iterations 0
time step continuity errors : sum local = 1.53633e-16, global = -5.83666e-17, cumulative = 9.77196e-16
ExecutionTime = 0.16 s  ClockTime = 0 s

Time = 0.00011

Courant Number mean: 0.00228282 max: 0.300437
diagonal:  Solving for rho, Initial residual = 0, Final residual = 0, No Iterations 0
PIMPLE: iteration 1
smoothSolver:  Solving for Ux, Initial residual = 0.0177991, Final residual = 1.38529e-17, No Iterations 1
smoothSolver:  Solving for e, Initial residual = 0.000929018, Final residual = 2.8988e-16, No Iterations 7
smoothSolver:  Solving for p, Initial residual = 0.000291277, Final residual = 1.27678e-16, No Iterations 6
diagonal:  Solving for rho, Initial residual = 0, Final residual = 0, No Iterations 0
time step continuity errors : sum local = 2.91462e-16, global = 6.44753e-17, cumulative = 1.04167e-15
PIMPLE: iteration 2
smoothSolver:  Solving for Ux, Initial residual = 0.000867657, Final residual = 9.73412e-18, No Iterations 1
smoothSolver:  Solving for e, Initial residual = 0.000215456, Final residual = 2.89982e-16, No Iterations 7
smoothSolver:  Solving for p, Initial residual = 2.64848e-05, Final residual = 6.05657e-17, No Iterations 6
diagonal:  Solving for rho, Initial residual = 0, Final residual = 0, No Iterations 0
time step continuity errors : sum local = 1.60211e-16, global = -7.01389e-17, cumulative = 9.71532e-16
ExecutionTime = 0.17 s  ClockTime = 0 s

Time = 0.00012

Courant Number mean: 0.0025021 max: 0.300355
diagonal:  Solving for rho, Initial residual = 0, Final residual = 0, No Iterations 0
PIMPLE: iteration 1
smoothSolver:  Solving for Ux, Initial residual = 0.0162942, Final residual = 2.35152e-17, No Iterations 1
smoothSolver:  Solving for e, Initial residual = 0.00097059, Final residual = 4.03052e-16, No Iterations 7
smoothSolver:  Solving for p, Initial residual = 0.00029016, Final residual = 1.20323e-16, No Iterations 6
diagonal:  Solving for rho, Initial residual = 0, Final residual = 0, No Iterations 0
time step continuity errors : sum local = 2.67868e-16, global = 5.26042e-17, cumulative = 1.02414e-15
PIMPLE: iteration 2
smoothSolver:  Solving for Ux, Initial residual = 0.000760229, Final residual = 1.15606e-17, No Iterations 1
smoothSolver:  Solving for e, Initial residual = 0.000216056, Final residual = 2.28629e-16, No Iterations 7
smoothSolver:  Solving for p, Initial residual = 2.73445e-05, Final residual = 6.65619e-17, No Iterations 6
diagonal:  Solving for rho, Initial residual = 0, Final residual = 0, No Iterations 0
time step continuity errors : sum local = 1.63699e-16, global = -4.67675e-17, cumulative = 9.77369e-16
ExecutionTime = 0.18 s  ClockTime = 0 s

Time = 0.00013

Courant Number mean: 0.00272413 max: 0.30151
diagonal:  Solving for rho, Initial residual = 0, Final residual = 0, No Iterations 0
PIMPLE: iteration 1
smoothSolver:  Solving for Ux, Initial residual = 0.0149952, Final residual = 1.6338e-17, No Iterations 1
smoothSolver:  Solving for e, Initial residual = 0.000981264, Final residual = 4.08399e-16, No Iterations 7
smoothSolver:  Solving for p, Initial residual = 0.000289443, Final residual = 9.94253e-17, No Iterations 6
diagonal:  Solving for rho, Initial residual = 0, Final residual = 0, No Iterations 0
time step continuity errors : sum local = 2.26517e-16, global = 2.17886e-17, cumulative = 9.99157e-16
PIMPLE: iteration 2
smoothSolver:  Solving for Ux, Initial residual = 0.000678623, Final residual = 1.50372e-17, No Iterations 1
smoothSolver:  Solving for e, Initial residual = 0.000212073, Final residual = 2.53256e-16, No Iterations 7
smoothSolver:  Solving for p, Initial residual = 2.79045e-05, Final residual = 6.16608e-17, No Iterations 6
diagonal:  Solving for rho, Initial residual = 0, Final residual = 0, No Iterations 0
time step continuity errors : sum local = 1.65504e-16, global = -5.43601e-17, cumulative = 9.44797e-16
ExecutionTime = 0.18 s  ClockTime = 0 s

Time = 0.00014

Courant Number mean: 0.00294852 max: 0.303013
diagonal:  Solving for rho, Initial residual = 0, Final residual = 0, No Iterations 0
PIMPLE: iteration 1
smoothSolver:  Solving for Ux, Initial residual = 0.0138364, Final residual = 1.10573e-17, No Iterations 1
smoothSolver:  Solving for e, Initial residual = 0.00101865, Final residual = 4.94386e-16, No Iterations 7
smoothSolver:  Solving for p, Initial residual = 0.000288543, Final residual = 7.66224e-17, No Iterations 6
diagonal:  Solving for rho, Initial residual = 0, Final residual = 0, No Iterations 0
time step continuity errors : sum local = 1.85759e-16, global = -1.08077e-17, cumulative = 9.3399e-16
PIMPLE: iteration 2
smoothSolver:  Solving for Ux, Initial residual = 0.000603401, Final residual = 1.08652e-17, No Iterations 1
smoothSolver:  Solving for e, Initial residual = 0.000206722, Final residual = 2.63648e-16, No Iterations 7
smoothSolver:  Solving for p, Initial residual = 2.56315e-05, Final residual = 5.77408e-17, No Iterations 6
diagonal:  Solving for rho, Initial residual = 0, Final residual = 0, No Iterations 0
time step continuity errors : sum local = 1.57565e-16, global = -4.82514e-17, cumulative = 8.85738e-16
ExecutionTime = 0.19 s  ClockTime = 0 s

Time = 0.00015

Courant Number mean: 0.00317108 max: 0.302851
diagonal:  Solving for rho, Initial residual = 0, Final residual = 0, No Iterations 0
PIMPLE: iteration 1
smoothSolver:  Solving for Ux, Initial residual = 0.0128946, Final residual = 2.10133e-17, No Iterations 1
smoothSolver:  Solving for e, Initial residual = 0.00102586, Final residual = 5.25713e-16, No Iterations 7
smoothSolver:  Solving for p, Initial residual = 0.000289021, Final residual = 7.26449e-17, No Iterations 6
diagonal:  Solving for rho, Initial residual = 0, Final residual = 0, No Iterations 0
time step continuity errors : sum local = 1.7557e-16, global = -2.79715e-17, cumulative = 8.57767e-16
PIMPLE: iteration 2
smoothSolver:  Solving for Ux, Initial residual = 0.000552757, Final residual = 1.4126e-17, No Iterations 1
smoothSolver:  Solving for e, Initial residual = 0.000208685, Final residual = 2.77344e-16, No Iterations 7
smoothSolver:  Solving for p, Initial residual = 2.69035e-05, Final residual = 6.09164e-17, No Iterations 6
diagonal:  Solving for rho, Initial residual = 0, Final residual = 0, No Iterations 0
time step continuity errors : sum local = 1.62957e-16, global = -3.96942e-17, cumulative = 8.18072e-16
ExecutionTime = 0.19 s  ClockTime = 0 s

Time = 0.00016

Courant Number mean: 0.00339504 max: 0.304242
diagonal:  Solving for rho, Initial residual = 0, Final residual = 0, No Iterations 0
PIMPLE: iteration 1
smoothSolver:  Solving for Ux, Initial residual = 0.0120246, Final residual = 1.26948e-17, No Iterations 1
smoothSolver:  Solving for e, Initial residual = 0.00103317, Final residual = 6.28906e-16, No Iterations 7
smoothSolver:  Solving for p, Initial residual = 0.000291055, Final residual = 1.44689e-16, No Iterations 6
diagonal:  Solving for rho, Initial residual = 0, Final residual = 0, No Iterations 0
time step continuity errors : sum local = 3.07785e-16, global = 1.02216e-16, cumulative = 9.20288e-16
PIMPLE: iteration 2
smoothSolver:  Solving for Ux, Initial residual = 0.000513084, Final residual = 1.32845e-17, No Iterations 1
smoothSolver:  Solving for e, Initial residual = 0.000211379, Final residual = 2.42622e-16, No Iterations 7
smoothSolver:  Solving for p, Initial residual = 2.69023e-05, Final residual = 1.56784e-16, No Iterations 6
diagonal:  Solving for rho, Initial residual = 0, Final residual = 0, No Iterations 0
time step continuity errors : sum local = 3.26779e-16, global = -1.98174e-16, cumulative = 7.22114e-16
ExecutionTime = 0.2 s  ClockTime = 0 s

Time = 0.00017

Courant Number mean: 0.00361854 max: 0.304141
diagonal:  Solving for rho, Initial residual = 0, Final residual = 0, No Iterations 0
PIMPLE: iteration 1
smoothSolver:  Solving for Ux, Initial residual = 0.0112358, Final residual = 1.79511e-17, No Iterations 1
smoothSolver:  Solving for e, Initial residual = 0.00103796, Final residual = 6.0517e-16, No Iterations 7
smoothSolver:  Solving for p, Initial residual = 0.000291347, Final residual = 1.02361e-16, No Iterations 6
diagonal:  Solving for rho, Initial residual = 0, Final residual = 0, No Iterations 0
time step continuity errors : sum local = 2.3819e-16, global = -5.95785e-17, cumulative = 6.62535e-16
PIMPLE: iteration 2
smoothSolver:  Solving for Ux, Initial residual = 0.000465923, Final residual = 9.3877e-18, No Iterations 1
smoothSolver:  Solving for e, Initial residual = 0.000197296, Final residual = 2.63096e-16, No Iterations 7
smoothSolver:  Solving for p, Initial residual = 2.57484e-05, Final residual = 2.9905e-16, No Iterations 6
diagonal:  Solving for rho, Initial residual = 0, Final residual = 0, No Iterations 0
time step continuity errors : sum local = 5.76791e-16, global = -4.55903e-16, cumulative = 2.06633e-16
ExecutionTime = 0.2 s  ClockTime = 0 s

Time = 0.00018

Courant Number mean: 0.00384022 max: 0.303779
diagonal:  Solving for rho, Initial residual = 0, Final residual = 0, No Iterations 0
PIMPLE: iteration 1
smoothSolver:  Solving for Ux, Initial residual = 0.0105706, Final residual = 1.9077e-17, No Iterations 1
smoothSolver:  Solving for e, Initial residual = 0.00104085, Final residual = 7.20228e-16, No Iterations 7
smoothSolver:  Solving for p, Initial residual = 0.000290465, Final residual = 1.99401e-16, No Iterations 6
diagonal:  Solving for rho, Initial residual = 0, Final residual = 0, No Iterations 0
time step continuity errors : sum local = 4.08393e-16, global = 1.1285e-16, cumulative = 3.19483e-16
PIMPLE: iteration 2
smoothSolver:  Solving for Ux, Initial residual = 0.00044413, Final residual = 1.45636e-17, No Iterations 1
smoothSolver:  Solving for e, Initial residual = 0.000211395, Final residual = 2.54383e-16, No Iterations 7
smoothSolver:  Solving for p, Initial residual = 2.81788e-05, Final residual = 1.93657e-16, No Iterations 6
diagonal:  Solving for rho, Initial residual = 0, Final residual = 0, No Iterations 0
time step continuity errors : sum local = 3.92961e-16, global = -2.7049e-16, cumulative = 4.89933e-17
ExecutionTime = 0.21 s  ClockTime = 0 s

Time = 0.00019

Courant Number mean: 0.00406201 max: 0.303411
diagonal:  Solving for rho, Initial residual = 0, Final residual = 0, No Iterations 0
PIMPLE: iteration 1
smoothSolver:  Solving for Ux, Initial residual = 0.00997223, Final residual = 1.56712e-17, No Iterations 1
smoothSolver:  Solving for e, Initial residual = 0.00104944, Final residual = 7.21146e-16, No Iterations 7
smoothSolver:  Solving for p, Initial residual = 0.000289301, Final residual = 2.62634e-16, No Iterations 6
diagonal:  Solving for rho, Initial residual = 0, Final residual = 0, No Iterations 0
time step continuity errors : sum local = 5.26314e-16, global = 2.71578e-16, cumulative = 3.20571e-16
PIMPLE: iteration 2
smoothSolver:  Solving for Ux, Initial residual = 0.000403818, Final residual = 1.71824e-17, No Iterations 1
smoothSolver:  Solving for e, Initial residual = 0.000190968, Final residual = 2.64964e-16, No Iterations 7
smoothSolver:  Solving for p, Initial residual = 2.46458e-05, Final residual = 1.72792e-16, No Iterations 6
diagonal:  Solving for rho, Initial residual = 0, Final residual = 0, No Iterations 0
time step continuity errors : sum local = 3.55616e-16, global = -2.3725e-16, cumulative = 8.33208e-17
ExecutionTime = 0.21 s  ClockTime = 0 s

Time = 0.0002

Courant Number mean: 0.00427906 max: 0.302782
diagonal:  Solving for rho, Initial residual = 0, Final residual = 0, No Iterations 0
PIMPLE: iteration 1
smoothSolver:  Solving for Ux, Initial residual = 0.00942305, Final residual = 1.52639e-17, No Iterations 1
smoothSolver:  Solving for e, Initial residual = 0.00105021, Final residual = 7.60392e-16, No Iterations 7
smoothSolver:  Solving for p, Initial residual = 0.000289172, Final residual = 1.98551e-16, No Iterations 6
diagonal:  Solving for rho, Initial residual = 0, Final residual = 0, No Iterations 0
time step continuity errors : sum local = 3.96275e-16, global = 1.1107e-16, cumulative = 1.94391e-16
PIMPLE: iteration 2
smoothSolver:  Solving for Ux, Initial residual = 0.000384055, Final residual = 1.38091e-17, No Iterations 1
smoothSolver:  Solving for e, Initial residual = 0.000213579, Final residual = 2.49383e-16, No Iterations 7
smoothSolver:  Solving for p, Initial residual = 2.79996e-05, Final residual = 1.073e-16, No Iterations 6
diagonal:  Solving for rho, Initial residual = 0, Final residual = 0, No Iterations 0
time step continuity errors : sum local = 2.40564e-16, global = -1.07063e-16, cumulative = 8.73273e-17
ExecutionTime = 0.22 s  ClockTime = 0 s

Time = 0.00021

Courant Number mean: 0.00449989 max: 0.301907
diagonal:  Solving for rho, Initial residual = 0, Final residual = 0, No Iterations 0
PIMPLE: iteration 1
smoothSolver:  Solving for Ux, Initial residual = 0.00894583, Final residual = 1.31568e-17, No Iterations 1
smoothSolver:  Solving for e, Initial residual = 0.00105301, Final residual = 7.29799e-16, No Iterations 7
smoothSolver:  Solving for p, Initial residual = 0.000289616, Final residual = 1.54008e-16, No Iterations 6
diagonal:  Solving for rho, Initial residual = 0, Final residual = 0, No Iterations 0
time step continuity errors : sum local = 3.16862e-16, global = 3.2992e-17, cumulative = 1.20319e-16
PIMPLE: iteration 2
smoothSolver:  Solving for Ux, Initial residual = 0.000359011, Final residual = 1.26879e-17, No Iterations 1
smoothSolver:  Solving for e, Initial residual = 0.000187765, Final residual = 2.58306e-16, No Iterations 7
smoothSolver:  Solving for p, Initial residual = 2.41353e-05, Final residual = 1.6683e-16, No Iterations 6
diagonal:  Solving for rho, Initial residual = 0, Final residual = 0, No Iterations 0
time step continuity errors : sum local = 3.47182e-16, global = -1.95528e-16, cumulative = -7.52089e-17
ExecutionTime = 0.22 s  ClockTime = 0 s

Time = 0.00022

Courant Number mean: 0.00471671 max: 0.300622
diagonal:  Solving for rho, Initial residual = 0, Final residual = 0, No Iterations 0
PIMPLE: iteration 1
smoothSolver:  Solving for Ux, Initial residual = 0.00850653, Final residual = 1.33514e-17, No Iterations 1
smoothSolver:  Solving for e, Initial residual = 0.0010542, Final residual = 7.76165e-16, No Iterations 7
smoothSolver:  Solving for p, Initial residual = 0.000289889, Final residual = 1.8675e-16, No Iterations 6
diagonal:  Solving for rho, Initial residual = 0, Final residual = 0, No Iterations 0
time step continuity errors : sum local = 3.7785e-16, global = 1.03724e-16, cumulative = 2.85156e-17
PIMPLE: iteration 2
smoothSolver:  Solving for Ux, Initial residual = 0.000335878, Final residual = 1.12318e-17, No Iterations 1
smoothSolver:  Solving for e, Initial residual = 0.000199376, Final residual = 2.34995e-16, No Iterations 7
smoothSolver:  Solving for p, Initial residual = 2.62796e-05, Final residual = 1.33291e-16, No Iterations 6
diagonal:  Solving for rho, Initial residual = 0, Final residual = 0, No Iterations 0
time step continuity errors : sum local = 2.82287e-16, global = -1.52149e-16, cumulative = -1.23633e-16
ExecutionTime = 0.23 s  ClockTime = 0 s

Time = 0.00023

Courant Number mean: 0.00493572 max: 0.299552
diagonal:  Solving for rho, Initial residual = 0, Final residual = 0, No Iterations 0
PIMPLE: iteration 1
smoothSolver:  Solving for Ux, Initial residual = 0.00811075, Final residual = 1.53899e-17, No Iterations 1
smoothSolver:  Solving for e, Initial residual = 0.00106239, Final residual = 7.70925e-16, No Iterations 7
smoothSolver:  Solving for p, Initial residual = 0.000289911, Final residual = 1.36046e-16, No Iterations 6
diagonal:  Solving for rho, Initial residual = 0, Final residual = 0, No Iterations 0
time step continuity errors : sum local = 2.88989e-16, global = 4.64212e-17, cumulative = -7.72121e-17
PIMPLE: iteration 2
smoothSolver:  Solving for Ux, Initial residual = 0.000319677, Final residual = 1.53192e-17, No Iterations 1
smoothSolver:  Solving for e, Initial residual = 0.000186877, Final residual = 2.55025e-16, No Iterations 7
smoothSolver:  Solving for p, Initial residual = 2.33987e-05, Final residual = 1.30918e-16, No Iterations 6
diagonal:  Solving for rho, Initial residual = 0, Final residual = 0, No Iterations 0
time step continuity errors : sum local = 2.83622e-16, global = -1.59568e-16, cumulative = -2.36781e-16
ExecutionTime = 0.23 s  ClockTime = 0 s

Time = 0.00024

Courant Number mean: 0.00515378 max: 0.299159
diagonal:  Solving for rho, Initial residual = 0, Final residual = 0, No Iterations 0
PIMPLE: iteration 1
smoothSolver:  Solving for Ux, Initial residual = 0.00776458, Final residual = 1.41095e-17, No Iterations 1
smoothSolver:  Solving for e, Initial residual = 0.00106417, Final residual = 7.95159e-16, No Iterations 7
smoothSolver:  Solving for p, Initial residual = 0.000290052, Final residual = 1.59242e-16, No Iterations 6
diagonal:  Solving for rho, Initial residual = 0, Final residual = 0, No Iterations 0
time step continuity errors : sum local = 3.36103e-16, global = 1.198e-16, cumulative = -1.16981e-16
PIMPLE: iteration 2
smoothSolver:  Solving for Ux, Initial residual = 0.000295589, Final residual = 1.72701e-17, No Iterations 1
smoothSolver:  Solving for e, Initial residual = 0.000191924, Final residual = 2.4255e-16, No Iterations 7
smoothSolver:  Solving for p, Initial residual = 2.44746e-05, Final residual = 8.56223e-17, No Iterations 6
diagonal:  Solving for rho, Initial residual = 0, Final residual = 0, No Iterations 0
time step continuity errors : sum local = 2.12247e-16, global = -5.29257e-17, cumulative = -1.69906e-16
ExecutionTime = 0.23 s  ClockTime = 0 s

Time = 0.00025

Courant Number mean: 0.00537104 max: 0.298478
diagonal:  Solving for rho, Initial residual = 0, Final residual = 0, No Iterations 0
PIMPLE: iteration 1
smoothSolver:  Solving for Ux, Initial residual = 0.00745087, Final residual = 1.59406e-17, No Iterations 1
smoothSolver:  Solving for e, Initial residual = 0.00107293, Final residual = 7.67986e-16, No Iterations 7
smoothSolver:  Solving for p, Initial residual = 0.000290359, Final residual = 1.54397e-16, No Iterations 6
diagonal:  Solving for rho, Initial residual = 0, Final residual = 0, No Iterations 0
time step continuity errors : sum local = 3.23861e-16, global = 6.31398e-17, cumulative = -1.06766e-16
PIMPLE: iteration 2
smoothSolver:  Solving for Ux, Initial residual = 0.000285743, Final residual = 1.36611e-17, No Iterations 1
smoothSolver:  Solving for e, Initial residual = 0.000190808, Final residual = 2.49528e-16, No Iterations 7
smoothSolver:  Solving for p, Initial residual = 2.48284e-05, Final residual = 8.32476e-17, No Iterations 6
diagonal:  Solving for rho, Initial residual = 0, Final residual = 0, No Iterations 0
time step continuity errors : sum local = 1.9026e-16, global = -6.82345e-17, cumulative = -1.75001e-16
ExecutionTime = 0.24 s  ClockTime = 0 s

Time = 0.00026

Courant Number mean: 0.00558887 max: 0.297749
diagonal:  Solving for rho, Initial residual = 0, Final residual = 0, No Iterations 0
PIMPLE: iteration 1
smoothSolver:  Solving for Ux, Initial residual = 0.00716088, Final residual = 1.33859e-17, No Iterations 1
smoothSolver:  Solving for e, Initial residual = 0.00107161, Final residual = 7.92507e-16, No Iterations 7
smoothSolver:  Solving for p, Initial residual = 0.000289977, Final residual = 1.27647e-16, No Iterations 6
diagonal:  Solving for rho, Initial residual = 0, Final residual = 0, No Iterations 0
time step continuity errors : sum local = 2.70861e-16, global = 4.24889e-17, cumulative = -1.32512e-16
PIMPLE: iteration 2
smoothSolver:  Solving for Ux, Initial residual = 0.000263424, Final residual = 1.5346e-17, No Iterations 1
smoothSolver:  Solving for e, Initial residual = 0.000177543, Final residual = 2.44888e-16, No Iterations 7
smoothSolver:  Solving for p, Initial residual = 2.24882e-05, Final residual = 7.83356e-17, No Iterations 6
diagonal:  Solving for rho, Initial residual = 0, Final residual = 0, No Iterations 0
time step continuity errors : sum local = 1.86847e-16, global = -5.69569e-17, cumulative = -1.89469e-16
ExecutionTime = 0.24 s  ClockTime = 0 s

Time = 0.00027

Courant Number mean: 0.00580501 max: 0.297097
diagonal:  Solving for rho, Initial residual = 0, Final residual = 0, No Iterations 0
PIMPLE: iteration 1
smoothSolver:  Solving for Ux, Initial residual = 0.00688855, Final residual = 1.32825e-17, No Iterations 1
smoothSolver:  Solving for e, Initial residual = 0.00107439, Final residual = 7.98026e-16, No Iterations 7
smoothSolver:  Solving for p, Initial residual = 0.000289165, Final residual = 1.24428e-16, No Iterations 6
diagonal:  Solving for rho, Initial residual = 0, Final residual = 0, No Iterations 0
time step continuity errors : sum local = 2.68956e-16, global = 4.77073e-17, cumulative = -1.41762e-16
PIMPLE: iteration 2
smoothSolver:  Solving for Ux, Initial residual = 0.00025674, Final residual = 1.36952e-17, No Iterations 1
smoothSolver:  Solving for e, Initial residual = 0.000187414, Final residual = 2.36331e-16, No Iterations 7
smoothSolver:  Solving for p, Initial residual = 2.44982e-05, Final residual = 6.57592e-17, No Iterations 6
diagonal:  Solving for rho, Initial residual = 0, Final residual = 0, No Iterations 0
time step continuity errors : sum local = 1.66963e-16, global = -3.32146e-17, cumulative = -1.74976e-16
ExecutionTime = 0.25 s  ClockTime = 0 s

Time = 0.00028

Courant Number mean: 0.00602354 max: 0.296863
diagonal:  Solving for rho, Initial residual = 0, Final residual = 0, No Iterations 0
PIMPLE: iteration 1
smoothSolver:  Solving for Ux, Initial residual = 0.00663814, Final residual = 1.77843e-17, No Iterations 1
smoothSolver:  Solving for e, Initial residual = 0.00106872, Final residual = 8.16175e-16, No Iterations 7
smoothSolver:  Solving for p, Initial residual = 0.000288731, Final residual = 1.09402e-16, No Iterations 6
diagonal:  Solving for rho, Initial residual = 0, Final residual = 0, No Iterations 0
time step continuity errors : sum local = 2.42865e-16, global = 2.14176e-17, cumulative = -1.53559e-16
PIMPLE: iteration 2
smoothSolver:  Solving for Ux, Initial residual = 0.000241482, Final residual = 1.51476e-17, No Iterations 1
smoothSolver:  Solving for e, Initial residual = 0.00016751, Final residual = 2.32022e-16, No Iterations 7
smoothSolver:  Solving for p, Initial residual = 2.07943e-05, Final residual = 6.70507e-17, No Iterations 6
diagonal:  Solving for rho, Initial residual = 0, Final residual = 0, No Iterations 0
time step continuity errors : sum local = 1.6402e-16, global = -3.66523e-17, cumulative = -1.90211e-16
ExecutionTime = 0.25 s  ClockTime = 0 s

Time = 0.00029

Courant Number mean: 0.00623926 max: 0.296527
diagonal:  Solving for rho, Initial residual = 0, Final residual = 0, No Iterations 0
PIMPLE: iteration 1
smoothSolver:  Solving for Ux, Initial residual = 0.0064092, Final residual = 1.55594e-17, No Iterations 1
smoothSolver:  Solving for e, Initial residual = 0.00106896, Final residual = 7.73642e-16, No Iterations 7
smoothSolver:  Solving for p, Initial residual = 0.000289358, Final residual = 1.29123e-16, No Iterations 6
diagonal:  Solving for rho, Initial residual = 0, Final residual = 0, No Iterations 0
time step continuity errors : sum local = 2.78923e-16, global = 3.66028e-17, cumulative = -1.53608e-16
PIMPLE: iteration 2
smoothSolver:  Solving for Ux, Initial residual = 0.000231783, Final residual = 1.38899e-17, No Iterations 1
smoothSolver:  Solving for e, Initial residual = 0.000181325, Final residual = 2.36243e-16, No Iterations 7
smoothSolver:  Solving for p, Initial residual = 2.42392e-05, Final residual = 6.98964e-17, No Iterations 6
diagonal:  Solving for rho, Initial residual = 0, Final residual = 0, No Iterations 0
time step continuity errors : sum local = 1.74704e-16, global = -2.36929e-17, cumulative = -1.77301e-16
ExecutionTime = 0.26 s  ClockTime = 0 s

Time = 0.0003

Courant Number mean: 0.00645723 max: 0.295937
diagonal:  Solving for rho, Initial residual = 0, Final residual = 0, No Iterations 0
PIMPLE: iteration 1
smoothSolver:  Solving for Ux, Initial residual = 0.00619664, Final residual = 1.65083e-17, No Iterations 1
smoothSolver:  Solving for e, Initial residual = 0.00106925, Final residual = 7.69106e-16, No Iterations 7
smoothSolver:  Solving for p, Initial residual = 0.000289198, Final residual = 1.16801e-16, No Iterations 6
diagonal:  Solving for rho, Initial residual = 0, Final residual = 0, No Iterations 0
time step continuity errors : sum local = 2.51521e-16, global = 3.50694e-17, cumulative = -1.42232e-16
PIMPLE: iteration 2
smoothSolver:  Solving for Ux, Initial residual = 0.000221905, Final residual = 1.54635e-17, No Iterations 1
smoothSolver:  Solving for e, Initial residual = 0.000166477, Final residual = 2.30062e-16, No Iterations 7
smoothSolver:  Solving for p, Initial residual = 2.12876e-05, Final residual = 6.9161e-17, No Iterations 6
diagonal:  Solving for rho, Initial residual = 0, Final residual = 0, No Iterations 0
time step continuity errors : sum local = 1.57862e-16, global = -2.78231e-17, cumulative = -1.70055e-16
ExecutionTime = 0.26 s  ClockTime = 0 s

Time = 0.00031

Courant Number mean: 0.00667334 max: 0.295445
diagonal:  Solving for rho, Initial residual = 0, Final residual = 0, No Iterations 0
PIMPLE: iteration 1
smoothSolver:  Solving for Ux, Initial residual = 0.00599423, Final residual = 1.58856e-17, No Iterations 1
smoothSolver:  Solving for e, Initial residual = 0.00107424, Final residual = 8.09546e-16, No Iterations 7
smoothSolver:  Solving for p, Initial residual = 0.000288798, Final residual = 1.13963e-16, No Iterations 6
diagonal:  Solving for rho, Initial residual = 0, Final residual = 0, No Iterations 0
time step continuity errors : sum local = 2.49493e-16, global = 3.61082e-17, cumulative = -1.33946e-16
PIMPLE: iteration 2
smoothSolver:  Solving for Ux, Initial residual = 0.000210294, Final residual = 1.88783e-17, No Iterations 1
smoothSolver:  Solving for e, Initial residual = 0.000172797, Final residual = 2.4109e-16, No Iterations 7
smoothSolver:  Solving for p, Initial residual = 2.25588e-05, Final residual = 6.46114e-17, No Iterations 6
diagonal:  Solving for rho, Initial residual = 0, Final residual = 0, No Iterations 0
time step continuity errors : sum local = 1.58925e-16, global = -3.40307e-17, cumulative = -1.67977e-16
ExecutionTime = 0.26 s  ClockTime = 0 s

Time = 0.00032

Courant Number mean: 0.00689108 max: 0.295324
diagonal:  Solving for rho, Initial residual = 0, Final residual = 0, No Iterations 0
PIMPLE: iteration 1
smoothSolver:  Solving for Ux, Initial residual = 0.00580388, Final residual = 1.53518e-17, No Iterations 1
smoothSolver:  Solving for e, Initial residual = 0.00107548, Final residual = 7.99253e-16, No Iterations 7
smoothSolver:  Solving for p, Initial residual = 0.00028863, Final residual = 1.0676e-16, No Iterations 6
diagonal:  Solving for rho, Initial residual = 0, Final residual = 0, No Iterations 0
time step continuity errors : sum local = 2.35791e-16, global = 2.66112e-17, cumulative = -1.41366e-16
PIMPLE: iteration 2
smoothSolver:  Solving for Ux, Initial residual = 0.000204033, Final residual = 1.79708e-17, No Iterations 1
smoothSolver:  Solving for e, Initial residual = 0.000170698, Final residual = 2.48853e-16, No Iterations 7
smoothSolver:  Solving for p, Initial residual = 2.206e-05, Final residual = 6.88943e-17, No Iterations 6
diagonal:  Solving for rho, Initial residual = 0, Final residual = 0, No Iterations 0
time step continuity errors : sum local = 1.6308e-16, global = -3.15081e-17, cumulative = -1.72874e-16
ExecutionTime = 0.27 s  ClockTime = 0 s

Time = 0.00033

Courant Number mean: 0.00710859 max: 0.295089
diagonal:  Solving for rho, Initial residual = 0, Final residual = 0, No Iterations 0
PIMPLE: iteration 1
smoothSolver:  Solving for Ux, Initial residual = 0.00562794, Final residual = 1.82841e-17, No Iterations 1
smoothSolver:  Solving for e, Initial residual = 0.0010749, Final residual = 8.00265e-16, No Iterations 7
smoothSolver:  Solving for p, Initial residual = 0.000289497, Final residual = 1.2609e-16, No Iterations 6
diagonal:  Solving for rho, Initial residual = 0, Final residual = 0, No Iterations 0
time step continuity errors : sum local = 2.71974e-16, global = 3.25715e-17, cumulative = -1.40302e-16
PIMPLE: iteration 2
smoothSolver:  Solving for Ux, Initial residual = 0.000191248, Final residual = 1.55553e-17, No Iterations 1
smoothSolver:  Solving for e, Initial residual = 0.000164815, Final residual = 2.42966e-16, No Iterations 7
smoothSolver:  Solving for p, Initial residual = 2.13351e-05, Final residual = 6.59329e-17, No Iterations 6
diagonal:  Solving for rho, Initial residual = 0, Final residual = 0, No Iterations 0
time step continuity errors : sum local = 1.6721e-16, global = -3.49952e-17, cumulative = -1.75298e-16
ExecutionTime = 0.27 s  ClockTime = 0 s

Time = 0.00034

Courant Number mean: 0.00732556 max: 0.294791
diagonal:  Solving for rho, Initial residual = 0, Final residual = 0, No Iterations 0
PIMPLE: iteration 1
smoothSolver:  Solving for Ux, Initial residual = 0.00546541, Final residual = 1.85926e-17, No Iterations 1
smoothSolver:  Solving for e, Initial residual = 0.00107496, Final residual = 7.8662e-16, No Iterations 7
smoothSolver:  Solving for p, Initial residual = 0.000289118, Final residual = 1.01507e-16, No Iterations 6
diagonal:  Solving for rho, Initial residual = 0, Final residual = 0, No Iterations 0
time step continuity errors : sum local = 2.281e-16, global = 9.96684e-18, cumulative = -1.65331e-16
PIMPLE: iteration 2
smoothSolver:  Solving for Ux, Initial residual = 0.000188037, Final residual = 1.64353e-17, No Iterations 1
smoothSolver:  Solving for e, Initial residual = 0.000167213, Final residual = 2.4209e-16, No Iterations 7
smoothSolver:  Solving for p, Initial residual = 2.23687e-05, Final residual = 6.10396e-17, No Iterations 6
diagonal:  Solving for rho, Initial residual = 0, Final residual = 0, No Iterations 0
time step continuity errors : sum local = 1.52025e-16, global = -2.81693e-17, cumulative = -1.935e-16
ExecutionTime = 0.28 s  ClockTime = 0 s

Time = 0.00035

Courant Number mean: 0.00754302 max: 0.294801
diagonal:  Solving for rho, Initial residual = 0, Final residual = 0, No Iterations 0
PIMPLE: iteration 1
smoothSolver:  Solving for Ux, Initial residual = 0.00531127, Final residual = 1.43707e-17, No Iterations 1
smoothSolver:  Solving for e, Initial residual = 0.00107126, Final residual = 7.93642e-16, No Iterations 7
smoothSolver:  Solving for p, Initial residual = 0.000288635, Final residual = 9.54591e-17, No Iterations 6
diagonal:  Solving for rho, Initial residual = 0, Final residual = 0, No Iterations 0
time step continuity errors : sum local = 2.20161e-16, global = -2.57209e-18, cumulative = -1.96072e-16
PIMPLE: iteration 2
smoothSolver:  Solving for Ux, Initial residual = 0.000175727, Final residual = 1.98598e-17, No Iterations 1
smoothSolver:  Solving for e, Initial residual = 0.000154506, Final residual = 2.2971e-16, No Iterations 7
smoothSolver:  Solving for p, Initial residual = 1.98074e-05, Final residual = 5.37023e-17, No Iterations 6
diagonal:  Solving for rho, Initial residual = 0, Final residual = 0, No Iterations 0
time step continuity errors : sum local = 1.47499e-16, global = -1.37508e-17, cumulative = -2.09823e-16
ExecutionTime = 0.28 s  ClockTime = 0 s

Time = 0.00036

Courant Number mean: 0.0077592 max: 0.294886
diagonal:  Solving for rho, Initial residual = 0, Final residual = 0, No Iterations 0
PIMPLE: iteration 1
smoothSolver:  Solving for Ux, Initial residual = 0.00516291, Final residual = 1.50572e-17, No Iterations 1
smoothSolver:  Solving for e, Initial residual = 0.00107134, Final residual = 8.2065e-16, No Iterations 7
smoothSolver:  Solving for p, Initial residual = 0.000288526, Final residual = 9.99459e-17, No Iterations 6
diagonal:  Solving for rho, Initial residual = 0, Final residual = 0, No Iterations 0
time step continuity errors : sum local = 2.23401e-16, global = -2.10219e-18, cumulative = -2.11925e-16
PIMPLE: iteration 2
smoothSolver:  Solving for Ux, Initial residual = 0.000174132, Final residual = 1.61963e-17, No Iterations 1
smoothSolver:  Solving for e, Initial residual = 0.000165935, Final residual = 2.32953e-16, No Iterations 7
smoothSolver:  Solving for p, Initial residual = 2.21205e-05, Final residual = 6.22399e-17, No Iterations 6
diagonal:  Solving for rho, Initial residual = 0, Final residual = 0, No Iterations 0
time step continuity errors : sum local = 1.51036e-16, global = -2.79715e-17, cumulative = -2.39897e-16
ExecutionTime = 0.29 s  ClockTime = 0 s

Time = 0.00037

Courant Number mean: 0.00797817 max: 0.294966
diagonal:  Solving for rho, Initial residual = 0, Final residual = 0, No Iterations 0
PIMPLE: iteration 1
smoothSolver:  Solving for Ux, Initial residual = 0.00502555, Final residual = 1.74726e-17, No Iterations 1
smoothSolver:  Solving for e, Initial residual = 0.00107298, Final residual = 8.06014e-16, No Iterations 7
smoothSolver:  Solving for p, Initial residual = 0.000289192, Final residual = 1.06553e-16, No Iterations 6
diagonal:  Solving for rho, Initial residual = 0, Final residual = 0, No Iterations 0
time step continuity errors : sum local = 2.30029e-16, global = 1.34293e-17, cumulative = -2.26467e-16
PIMPLE: iteration 2
smoothSolver:  Solving for Ux, Initial residual = 0.000165731, Final residual = 1.4101e-17, No Iterations 1
smoothSolver:  Solving for e, Initial residual = 0.000147206, Final residual = 2.2136e-16, No Iterations 7
smoothSolver:  Solving for p, Initial residual = 1.87056e-05, Final residual = 5.4342e-17, No Iterations 6
diagonal:  Solving for rho, Initial residual = 0, Final residual = 0, No Iterations 0
time step continuity errors : sum local = 1.41885e-16, global = -1.41218e-17, cumulative = -2.40589e-16
ExecutionTime = 0.29 s  ClockTime = 0 s

Time = 0.00038

Courant Number mean: 0.00819391 max: 0.29502
diagonal:  Solving for rho, Initial residual = 0, Final residual = 0, No Iterations 0
PIMPLE: iteration 1
smoothSolver:  Solving for Ux, Initial residual = 0.00489331, Final residual = 1.68356e-17, No Iterations 1
smoothSolver:  Solving for e, Initial residual = 0.00107498, Final residual = 8.11682e-16, No Iterations 7
smoothSolver:  Solving for p, Initial residual = 0.000289182, Final residual = 1.04505e-16, No Iterations 6
diagonal:  Solving for rho, Initial residual = 0, Final residual = 0, No Iterations 0
time step continuity errors : sum local = 2.27308e-16, global = 1.11292e-18, cumulative = -2.39476e-16
PIMPLE: iteration 2
smoothSolver:  Solving for Ux, Initial residual = 0.000162009, Final residual = 1.68818e-17, No Iterations 1
smoothSolver:  Solving for e, Initial residual = 0.000163126, Final residual = 2.30713e-16, No Iterations 7
smoothSolver:  Solving for p, Initial residual = 2.20256e-05, Final residual = 5.88079e-17, No Iterations 6
diagonal:  Solving for rho, Initial residual = 0, Final residual = 0, No Iterations 0
time step continuity errors : sum local = 1.55611e-16, global = -2.60177e-17, cumulative = -2.65494e-16
ExecutionTime = 0.3 s  ClockTime = 0 s

Time = 0.00039

Courant Number mean: 0.00841264 max: 0.29503
diagonal:  Solving for rho, Initial residual = 0, Final residual = 0, No Iterations 0
PIMPLE: iteration 1
smoothSolver:  Solving for Ux, Initial residual = 0.00477173, Final residual = 1.87577e-17, No Iterations 1
smoothSolver:  Solving for e, Initial residual = 0.001075, Final residual = 8.15297e-16, No Iterations 7
smoothSolver:  Solving for p, Initial residual = 0.000288729, Final residual = 9.9156e-17, No Iterations 6
diagonal:  Solving for rho, Initial residual = 0, Final residual = 0, No Iterations 0
time step continuity errors : sum local = 2.24761e-16, global = 4.94632e-20, cumulative = -2.65444e-16
PIMPLE: iteration 2
smoothSolver:  Solving for Ux, Initial residual = 0.000156286, Final residual = 1.47228e-17, No Iterations 1
smoothSolver:  Solving for e, Initial residual = 0.000146678, Final residual = 2.27238e-16, No Iterations 7
smoothSolver:  Solving for p, Initial residual = 1.89073e-05, Final residual = 6.42617e-17, No Iterations 6
diagonal:  Solving for rho, Initial residual = 0, Final residual = 0, No Iterations 0
time step continuity errors : sum local = 1.56601e-16, global = -2.81446e-17, cumulative = -2.93589e-16
ExecutionTime = 0.3 s  ClockTime = 0 s

Time = 0.0004

Courant Number mean: 0.0086293 max: 0.294992
diagonal:  Solving for rho, Initial residual = 0, Final residual = 0, No Iterations 0
PIMPLE: iteration 1
smoothSolver:  Solving for Ux, Initial residual = 0.00465221, Final residual = 1.68061e-17, No Iterations 1
smoothSolver:  Solving for e, Initial residual = 0.00107393, Final residual = 8.39612e-16, No Iterations 7
smoothSolver:  Solving for p, Initial residual = 0.000288773, Final residual = 9.91994e-17, No Iterations 6
diagonal:  Solving for rho, Initial residual = 0, Final residual = 0, No Iterations 0
time step continuity errors : sum local = 2.19147e-16, global = -1.43691e-17, cumulative = -3.07958e-16
PIMPLE: iteration 2
smoothSolver:  Solving for Ux, Initial residual = 0.000150772, Final residual = 1.11973e-17, No Iterations 1
smoothSolver:  Solving for e, Initial residual = 0.000157866, Final residual = 2.39295e-16, No Iterations 7
smoothSolver:  Solving for p, Initial residual = 2.11218e-05, Final residual = 6.52153e-17, No Iterations 6
diagonal:  Solving for rho, Initial residual = 0, Final residual = 0, No Iterations 0
time step continuity errors : sum local = 1.61572e-16, global = -3.98921e-17, cumulative = -3.4785e-16
ExecutionTime = 0.3 s  ClockTime = 0 s

Time = 0.00041

Courant Number mean: 0.00884847 max: 0.294903
diagonal:  Solving for rho, Initial residual = 0, Final residual = 0, No Iterations 0
PIMPLE: iteration 1
smoothSolver:  Solving for Ux, Initial residual = 0.00454063, Final residual = 1.56894e-17, No Iterations 1
smoothSolver:  Solving for e, Initial residual = 0.00107433, Final residual = 8.43206e-16, No Iterations 7
smoothSolver:  Solving for p, Initial residual = 0.000289161, Final residual = 1.01376e-16, No Iterations 6
diagonal:  Solving for rho, Initial residual = 0, Final residual = 0, No Iterations 0
time step continuity errors : sum local = 2.32749e-16, global = -8.33456e-18, cumulative = -3.56185e-16
PIMPLE: iteration 2
smoothSolver:  Solving for Ux, Initial residual = 0.000147658, Final residual = 1.71678e-17, No Iterations 1
smoothSolver:  Solving for e, Initial residual = 0.000149912, Final residual = 2.32703e-16, No Iterations 7
smoothSolver:  Solving for p, Initial residual = 1.93826e-05, Final residual = 5.43478e-17, No Iterations 6
diagonal:  Solving for rho, Initial residual = 0, Final residual = 0, No Iterations 0
time step continuity errors : sum local = 1.43369e-16, global = -2.33219e-17, cumulative = -3.79507e-16
ExecutionTime = 0.31 s  ClockTime = 0 s

Time = 0.00042

Courant Number mean: 0.00906588 max: 0.294787
diagonal:  Solving for rho, Initial residual = 0, Final residual = 0, No Iterations 0
PIMPLE: iteration 1
smoothSolver:  Solving for Ux, Initial residual = 0.00443336, Final residual = 1.41885e-17, No Iterations 1
smoothSolver:  Solving for e, Initial residual = 0.00107585, Final residual = 8.42499e-16, No Iterations 7
smoothSolver:  Solving for p, Initial residual = 0.000289316, Final residual = 9.6761e-17, No Iterations 6
diagonal:  Solving for rho, Initial residual = 0, Final residual = 0, No Iterations 0
time step continuity errors : sum local = 2.17144e-16, global = -1.04862e-17, cumulative = -3.89993e-16
PIMPLE: iteration 2
smoothSolver:  Solving for Ux, Initial residual = 0.000141221, Final residual = 1.63868e-17, No Iterations 1
smoothSolver:  Solving for e, Initial residual = 0.00015124, Final residual = 2.37979e-16, No Iterations 7
smoothSolver:  Solving for p, Initial residual = 1.99718e-05, Final residual = 9.14978e-16, No Iterations 5
diagonal:  Solving for rho, Initial residual = 0, Final residual = 0, No Iterations 0
time step continuity errors : sum local = 1.65304e-15, global = -7.8743e-16, cumulative = -1.17742e-15
ExecutionTime = 0.31 s  ClockTime = 0 s

Time = 0.00043

Courant Number mean: 0.00928386 max: 0.294644
diagonal:  Solving for rho, Initial residual = 0, Final residual = 0, No Iterations 0
PIMPLE: iteration 1
smoothSolver:  Solving for Ux, Initial residual = 0.00433282, Final residual = 1.67405e-17, No Iterations 1
smoothSolver:  Solving for e, Initial residual = 0.00107863, Final residual = 8.52367e-16, No Iterations 7
smoothSolver:  Solving for p, Initial residual = 0.000289077, Final residual = 9.65354e-17, No Iterations 6
diagonal:  Solving for rho, Initial residual = 0, Final residual = 0, No Iterations 0
time step continuity errors : sum local = 2.20928e-16, global = -1.14507e-17, cumulative = -1.18887e-15
PIMPLE: iteration 2
smoothSolver:  Solving for Ux, Initial residual = 0.000139371, Final residual = 1.81447e-17, No Iterations 1
smoothSolver:  Solving for e, Initial residual = 0.000150937, Final residual = 2.30372e-16, No Iterations 7
smoothSolver:  Solving for p, Initial residual = 1.97546e-05, Final residual = 6.25126e-17, No Iterations 6
diagonal:  Solving for rho, Initial residual = 0, Final residual = 0, No Iterations 0
time step continuity errors : sum local = 1.50269e-16, global = -2.88371e-17, cumulative = -1.21771e-15
ExecutionTime = 0.32 s  ClockTime = 0 s

Time = 0.00044

Courant Number mean: 0.00950208 max: 0.294489
diagonal:  Solving for rho, Initial residual = 0, Final residual = 0, No Iterations 0
PIMPLE: iteration 1
smoothSolver:  Solving for Ux, Initial residual = 0.00423576, Final residual = 1.82459e-17, No Iterations 1
smoothSolver:  Solving for e, Initial residual = 0.00107864, Final residual = 8.55722e-16, No Iterations 7
smoothSolver:  Solving for p, Initial residual = 0.000289273, Final residual = 9.47108e-17, No Iterations 6
diagonal:  Solving for rho, Initial residual = 0, Final residual = 0, No Iterations 0
time step continuity errors : sum local = 2.2026e-16, global = -2.07746e-17, cumulative = -1.23849e-15
PIMPLE: iteration 2
smoothSolver:  Solving for Ux, Initial residual = 0.000131969, Final residual = 1.48716e-17, No Iterations 1
smoothSolver:  Solving for e, Initial residual = 0.00014542, Final residual = 2.38246e-16, No Iterations 7
smoothSolver:  Solving for p, Initial residual = 1.89812e-05, Final residual = 6.17143e-17, No Iterations 6
diagonal:  Solving for rho, Initial residual = 0, Final residual = 0, No Iterations 0
time step continuity errors : sum local = 1.57986e-16, global = -4.10545e-17, cumulative = -1.27954e-15
ExecutionTime = 0.32 s  ClockTime = 0 s

Time = 0.00045

Courant Number mean: 0.00972012 max: 0.294415
diagonal:  Solving for rho, Initial residual = 0, Final residual = 0, No Iterations 0
PIMPLE: iteration 1
smoothSolver:  Solving for Ux, Initial residual = 0.00414367, Final residual = 1.50943e-17, No Iterations 1
smoothSolver:  Solving for e, Initial residual = 0.00107894, Final residual = 8.5144e-16, No Iterations 7
smoothSolver:  Solving for p, Initial residual = 0.000289815, Final residual = 9.36979e-17, No Iterations 6
diagonal:  Solving for rho, Initial residual = 0, Final residual = 0, No Iterations 0
time step continuity errors : sum local = 2.07869e-16, global = -1.28357e-17, cumulative = -1.29238e-15
PIMPLE: iteration 2
smoothSolver:  Solving for Ux, Initial residual = 0.000131794, Final residual = 1.68276e-17, No Iterations 1
smoothSolver:  Solving for e, Initial residual = 0.000150019, Final residual = 2.2914e-16, No Iterations 7
smoothSolver:  Solving for p, Initial residual = 1.97701e-05, Final residual = 5.69709e-17, No Iterations 6
diagonal:  Solving for rho, Initial residual = 0, Final residual = 0, No Iterations 0
time step continuity errors : sum local = 1.40673e-16, global = -2.75016e-17, cumulative = -1.31988e-15
ExecutionTime = 0.33 s  ClockTime = 0 s

Time = 0.00046

Courant Number mean: 0.00993884 max: 0.294375
diagonal:  Solving for rho, Initial residual = 0, Final residual = 0, No Iterations 0
PIMPLE: iteration 1
smoothSolver:  Solving for Ux, Initial residual = 0.00405486, Final residual = 1.92386e-17, No Iterations 1
smoothSolver:  Solving for e, Initial residual = 0.00107844, Final residual = 8.53691e-16, No Iterations 7
smoothSolver:  Solving for p, Initial residual = 0.00028987, Final residual = 9.69011e-17, No Iterations 6
diagonal:  Solving for rho, Initial residual = 0, Final residual = 0, No Iterations 0
time step continuity errors : sum local = 2.1979e-16, global = -1.7881e-17, cumulative = -1.33776e-15
PIMPLE: iteration 2
smoothSolver:  Solving for Ux, Initial residual = 0.000125363, Final residual = 1.528e-17, No Iterations 1
smoothSolver:  Solving for e, Initial residual = 0.000138668, Final residual = 2.24771e-16, No Iterations 7
smoothSolver:  Solving for p, Initial residual = 1.79442e-05, Final residual = 9.93346e-16, No Iterations 5
diagonal:  Solving for rho, Initial residual = 0, Final residual = 0, No Iterations 0
time step continuity errors : sum local = 1.79007e-15, global = -7.29978e-16, cumulative = -2.06774e-15
ExecutionTime = 0.33 s  ClockTime = 0 s

Time = 0.00047

Courant Number mean: 0.0101562 max: 0.29433
diagonal:  Solving for rho, Initial residual = 0, Final residual = 0, No Iterations 0
PIMPLE: iteration 1
smoothSolver:  Solving for Ux, Initial residual = 0.00396974, Final residual = 1.62669e-17, No Iterations 1
smoothSolver:  Solving for e, Initial residual = 0.00107896, Final residual = 8.76067e-16, No Iterations 7
smoothSolver:  Solving for p, Initial residual = 0.000289655, Final residual = 9.49702e-17, No Iterations 6
diagonal:  Solving for rho, Initial residual = 0, Final residual = 0, No Iterations 0
time step continuity errors : sum local = 2.15932e-16, global = -1.14507e-17, cumulative = -2.07919e-15
PIMPLE: iteration 2
smoothSolver:  Solving for Ux, Initial residual = 0.000124764, Final residual = 1.67282e-17, No Iterations 1
smoothSolver:  Solving for e, Initial residual = 0.00015003, Final residual = 2.36741e-16, No Iterations 7
smoothSolver:  Solving for p, Initial residual = 1.99955e-05, Final residual = 5.92966e-17, No Iterations 6
diagonal:  Solving for rho, Initial residual = 0, Final residual = 0, No Iterations 0
time step continuity errors : sum local = 1.52718e-16, global = -3.45006e-17, cumulative = -2.11369e-15
ExecutionTime = 0.34 s  ClockTime = 0 s

Time = 0.00048

Courant Number mean: 0.0103752 max: 0.294284
diagonal:  Solving for rho, Initial residual = 0, Final residual = 0, No Iterations 0
PIMPLE: iteration 1
smoothSolver:  Solving for Ux, Initial residual = 0.00388956, Final residual = 1.59729e-17, No Iterations 1
smoothSolver:  Solving for e, Initial residual = 0.00107942, Final residual = 8.75566e-16, No Iterations 7
smoothSolver:  Solving for p, Initial residual = 0.000289819, Final residual = 9.24616e-17, No Iterations 6
diagonal:  Solving for rho, Initial residual = 0, Final residual = 0, No Iterations 0
time step continuity errors : sum local = 2.09229e-16, global = -2.41875e-17, cumulative = -2.13788e-15
PIMPLE: iteration 2
smoothSolver:  Solving for Ux, Initial residual = 0.000120332, Final residual = 1.41978e-17, No Iterations 1
smoothSolver:  Solving for e, Initial residual = 0.000134887, Final residual = 2.41227e-16, No Iterations 7
smoothSolver:  Solving for p, Initial residual = 1.74449e-05, Final residual = 5.4523e-17, No Iterations 6
diagonal:  Solving for rho, Initial residual = 0, Final residual = 0, No Iterations 0
time step continuity errors : sum local = 1.43122e-16, global = -2.21348e-17, cumulative = -2.16001e-15
ExecutionTime = 0.34 s  ClockTime = 0 s

Time = 0.00049

Courant Number mean: 0.0105924 max: 0.294241
diagonal:  Solving for rho, Initial residual = 0, Final residual = 0, No Iterations 0
PIMPLE: iteration 1
smoothSolver:  Solving for Ux, Initial residual = 0.00381189, Final residual = 1.70317e-17, No Iterations 1
smoothSolver:  Solving for e, Initial residual = 0.00107939, Final residual = 8.74303e-16, No Iterations 7
smoothSolver:  Solving for p, Initial residual = 0.000290208, Final residual = 9.50118e-17, No Iterations 6
diagonal:  Solving for rho, Initial residual = 0, Final residual = 0, No Iterations 0
time step continuity errors : sum local = 2.17168e-16, global = -1.85734e-17, cumulative = -2.17858e-15
PIMPLE: iteration 2
smoothSolver:  Solving for Ux, Initial residual = 0.000118424, Final residual = 1.37432e-17, No Iterations 1
smoothSolver:  Solving for e, Initial residual = 0.000147147, Final residual = 2.37859e-16, No Iterations 7
smoothSolver:  Solving for p, Initial residual = 1.9706e-05, Final residual = 5.64304e-17, No Iterations 6
diagonal:  Solving for rho, Initial residual = 0, Final residual = 0, No Iterations 0
time step continuity errors : sum local = 1.48118e-16, global = -3.37092e-17, cumulative = -2.21229e-15
ExecutionTime = 0.34 s  ClockTime = 0 s

Time = 0.0005

Courant Number mean: 0.0108118 max: 0.294209
diagonal:  Solving for rho, Initial residual = 0, Final residual = 0, No Iterations 0
PIMPLE: iteration 1
smoothSolver:  Solving for Ux, Initial residual = 0.00373701, Final residual = 1.58488e-17, No Iterations 1
smoothSolver:  Solving for e, Initial residual = 0.00107963, Final residual = 8.80861e-16, No Iterations 7
smoothSolver:  Solving for p, Initial residual = 0.000290172, Final residual = 9.45443e-17, No Iterations 6
diagonal:  Solving for rho, Initial residual = 0, Final residual = 0, No Iterations 0
time step continuity errors : sum local = 2.09254e-16, global = -2.08488e-17, cumulative = -2.23314e-15
PIMPLE: iteration 2
smoothSolver:  Solving for Ux, Initial residual = 0.000115417, Final residual = 2.00157e-17, No Iterations 1
smoothSolver:  Solving for e, Initial residual = 0.000136365, Final residual = 2.33905e-16, No Iterations 7
smoothSolver:  Solving for p, Initial residual = 1.73763e-05, Final residual = 5.6808e-17, No Iterations 6
diagonal:  Solving for rho, Initial residual = 0, Final residual = 0, No Iterations 0
time step continuity errors : sum local = 1.42429e-16, global = -3.25221e-17, cumulative = -2.26566e-15
ExecutionTime = 0.35 s  ClockTime = 0 s

Time = 0.00051

Courant Number mean: 0.0110291 max: 0.294191
diagonal:  Solving for rho, Initial residual = 0, Final residual = 0, No Iterations 0
PIMPLE: iteration 1
smoothSolver:  Solving for Ux, Initial residual = 0.00366476, Final residual = 1.49514e-17, No Iterations 1
smoothSolver:  Solving for e, Initial residual = 0.00107983, Final residual = 8.90965e-16, No Iterations 7
smoothSolver:  Solving for p, Initial residual = 0.00029025, Final residual = 9.52662e-17, No Iterations 6
diagonal:  Solving for rho, Initial residual = 0, Final residual = 0, No Iterations 0
time step continuity errors : sum local = 2.13137e-16, global = -2.57703e-17, cumulative = -2.29143e-15
PIMPLE: iteration 2
smoothSolver:  Solving for Ux, Initial residual = 0.000112185, Final residual = 1.30072e-17, No Iterations 1
smoothSolver:  Solving for e, Initial residual = 0.000145843, Final residual = 2.39961e-16, No Iterations 7
smoothSolver:  Solving for p, Initial residual = 1.96444e-05, Final residual = 5.47276e-17, No Iterations 6
diagonal:  Solving for rho, Initial residual = 0, Final residual = 0, No Iterations 0
time step continuity errors : sum local = 1.43617e-16, global = -3.18791e-17, cumulative = -2.32331e-15
ExecutionTime = 0.35 s  ClockTime = 0 s

Time = 0.00052

Courant Number mean: 0.0112485 max: 0.294183
diagonal:  Solving for rho, Initial residual = 0, Final residual = 0, No Iterations 0
PIMPLE: iteration 1
smoothSolver:  Solving for Ux, Initial residual = 0.00359674, Final residual = 1.55233e-17, No Iterations 1
smoothSolver:  Solving for e, Initial residual = 0.00108102, Final residual = 9.06476e-16, No Iterations 7
smoothSolver:  Solving for p, Initial residual = 0.000290365, Final residual = 9.75998e-17, No Iterations 6
diagonal:  Solving for rho, Initial residual = 0, Final residual = 0, No Iterations 0
time step continuity errors : sum local = 2.13904e-16, global = -1.45175e-17, cumulative = -2.33783e-15
PIMPLE: iteration 2
smoothSolver:  Solving for Ux, Initial residual = 0.000110763, Final residual = 1.46705e-17, No Iterations 1
smoothSolver:  Solving for e, Initial residual = 0.000139318, Final residual = 2.41374e-16, No Iterations 7
smoothSolver:  Solving for p, Initial residual = 1.77771e-05, Final residual = 6.48375e-17, No Iterations 6
diagonal:  Solving for rho, Initial residual = 0, Final residual = 0, No Iterations 0
time step continuity errors : sum local = 1.6266e-16, global = -5.79956e-17, cumulative = -2.39583e-15
ExecutionTime = 0.36 s  ClockTime = 0 s

Time = 0.00053

Courant Number mean: 0.0114665 max: 0.294186
diagonal:  Solving for rho, Initial residual = 0, Final residual = 0, No Iterations 0
PIMPLE: iteration 1
smoothSolver:  Solving for Ux, Initial residual = 0.00353052, Final residual = 1.8631e-17, No Iterations 1
smoothSolver:  Solving for e, Initial residual = 0.00108097, Final residual = 8.89164e-16, No Iterations 7
smoothSolver:  Solving for p, Initial residual = 0.000290563, Final residual = 1.02492e-16, No Iterations 6
diagonal:  Solving for rho, Initial residual = 0, Final residual = 0, No Iterations 0
time step continuity errors : sum local = 2.28792e-16, global = -1.44185e-17, cumulative = -2.41024e-15
PIMPLE: iteration 2
smoothSolver:  Solving for Ux, Initial residual = 0.00010682, Final residual = 1.48223e-17, No Iterations 1
smoothSolver:  Solving for e, Initial residual = 0.00014003, Final residual = 2.43779e-16, No Iterations 7
smoothSolver:  Solving for p, Initial residual = 1.84956e-05, Final residual = 5.89001e-17, No Iterations 6
diagonal:  Solving for rho, Initial residual = 0, Final residual = 0, No Iterations 0
time step continuity errors : sum local = 1.42058e-16, global = -3.22995e-17, cumulative = -2.44254e-15
ExecutionTime = 0.36 s  ClockTime = 0 s

Time = 0.00054

Courant Number mean: 0.0116857 max: 0.294187
diagonal:  Solving for rho, Initial residual = 0, Final residual = 0, No Iterations 0
PIMPLE: iteration 1
smoothSolver:  Solving for Ux, Initial residual = 0.00346642, Final residual = 1.74813e-17, No Iterations 1
smoothSolver:  Solving for e, Initial residual = 0.00107966, Final residual = 9.07121e-16, No Iterations 7
smoothSolver:  Solving for p, Initial residual = 0.000290742, Final residual = 1.00135e-16, No Iterations 6
diagonal:  Solving for rho, Initial residual = 0, Final residual = 0, No Iterations 0
time step continuity errors : sum local = 2.21991e-16, global = -2.67101e-17, cumulative = -2.46925e-15
PIMPLE: iteration 2
smoothSolver:  Solving for Ux, Initial residual = 0.000106, Final residual = 1.6234e-17, No Iterations 1
smoothSolver:  Solving for e, Initial residual = 0.000141274, Final residual = 2.4354e-16, No Iterations 7
smoothSolver:  Solving for p, Initial residual = 1.83339e-05, Final residual = 5.66923e-17, No Iterations 6
diagonal:  Solving for rho, Initial residual = 0, Final residual = 0, No Iterations 0
time step continuity errors : sum local = 1.46906e-16, global = -3.4377e-17, cumulative = -2.50363e-15
ExecutionTime = 0.37 s  ClockTime = 0 s

Time = 0.00055

Courant Number mean: 0.0119043 max: 0.294186
diagonal:  Solving for rho, Initial residual = 0, Final residual = 0, No Iterations 0
PIMPLE: iteration 1
smoothSolver:  Solving for Ux, Initial residual = 0.00340524, Final residual = 1.67315e-17, No Iterations 1
smoothSolver:  Solving for e, Initial residual = 0.00107942, Final residual = 9.12334e-16, No Iterations 7
smoothSolver:  Solving for p, Initial residual = 0.00029087, Final residual = 9.7882e-17, No Iterations 6
diagonal:  Solving for rho, Initial residual = 0, Final residual = 0, No Iterations 0
time step continuity errors : sum local = 2.16624e-16, global = -1.94638e-17, cumulative = -2.5231e-15
PIMPLE: iteration 2
smoothSolver:  Solving for Ux, Initial residual = 0.000101191, Final residual = 1.70445e-17, No Iterations 1
smoothSolver:  Solving for e, Initial residual = 0.000137642, Final residual = 2.48096e-16, No Iterations 7
smoothSolver:  Solving for p, Initial residual = 1.82547e-05, Final residual = 5.72123e-17, No Iterations 6
diagonal:  Solving for rho, Initial residual = 0, Final residual = 0, No Iterations 0
time step continuity errors : sum local = 1.50764e-16, global = -3.09145e-17, cumulative = -2.55401e-15
ExecutionTime = 0.37 s  ClockTime = 0 s

Time = 0.00056

Courant Number mean: 0.0121228 max: 0.294177
diagonal:  Solving for rho, Initial residual = 0, Final residual = 0, No Iterations 0
PIMPLE: iteration 1
smoothSolver:  Solving for Ux, Initial residual = 0.00334638, Final residual = 1.6509e-17, No Iterations 1
smoothSolver:  Solving for e, Initial residual = 0.00107966, Final residual = 9.07747e-16, No Iterations 7
smoothSolver:  Solving for p, Initial residual = 0.000291025, Final residual = 9.5364e-17, No Iterations 6
diagonal:  Solving for rho, Initial residual = 0, Final residual = 0, No Iterations 0
time step continuity errors : sum local = 2.16946e-16, global = -2.8194e-17, cumulative = -2.5822e-15
PIMPLE: iteration 2
smoothSolver:  Solving for Ux, Initial residual = 0.000101728, Final residual = 1.62608e-17, No Iterations 1
smoothSolver:  Solving for e, Initial residual = 0.000139876, Final residual = 2.44642e-16, No Iterations 7
smoothSolver:  Solving for p, Initial residual = 1.82308e-05, Final residual = 6.20727e-17, No Iterations 6
diagonal:  Solving for rho, Initial residual = 0, Final residual = 0, No Iterations 0
time step continuity errors : sum local = 1.53386e-16, global = -4.88202e-17, cumulative = -2.63102e-15
ExecutionTime = 0.37 s  ClockTime = 0 s

Time = 0.00057

Courant Number mean: 0.0123417 max: 0.294145
diagonal:  Solving for rho, Initial residual = 0, Final residual = 0, No Iterations 0
PIMPLE: iteration 1
smoothSolver:  Solving for Ux, Initial residual = 0.00328983, Final residual = 1.78546e-17, No Iterations 1
smoothSolver:  Solving for e, Initial residual = 0.00108006, Final residual = 9.24433e-16, No Iterations 7
smoothSolver:  Solving for p, Initial residual = 0.00029116, Final residual = 9.8296e-17, No Iterations 6
diagonal:  Solving for rho, Initial residual = 0, Final residual = 0, No Iterations 0
time step continuity errors : sum local = 2.22758e-16, global = -2.4509e-17, cumulative = -2.65553e-15
PIMPLE: iteration 2
smoothSolver:  Solving for Ux, Initial residual = 9.75079e-05, Final residual = 1.79961e-17, No Iterations 1
smoothSolver:  Solving for e, Initial residual = 0.000129913, Final residual = 2.51521e-16, No Iterations 7
smoothSolver:  Solving for p, Initial residual = 1.68091e-05, Final residual = 5.95858e-17, No Iterations 6
diagonal:  Solving for rho, Initial residual = 0, Final residual = 0, No Iterations 0
time step continuity errors : sum local = 1.47672e-16, global = -3.17801e-17, cumulative = -2.68731e-15
ExecutionTime = 0.38 s  ClockTime = 0 s

Time = 0.00058

Courant Number mean: 0.0125601 max: 0.294114
diagonal:  Solving for rho, Initial residual = 0, Final residual = 0, No Iterations 0
PIMPLE: iteration 1
smoothSolver:  Solving for Ux, Initial residual = 0.00323396, Final residual = 1.28753e-17, No Iterations 1
smoothSolver:  Solving for e, Initial residual = 0.00107978, Final residual = 9.37828e-16, No Iterations 7
smoothSolver:  Solving for p, Initial residual = 0.000291295, Final residual = 1.02202e-16, No Iterations 6
diagonal:  Solving for rho, Initial residual = 0, Final residual = 0, No Iterations 0
time step continuity errors : sum local = 2.25627e-16, global = -1.59519e-17, cumulative = -2.70326e-15
PIMPLE: iteration 2
smoothSolver:  Solving for Ux, Initial residual = 9.73251e-05, Final residual = 1.67055e-17, No Iterations 1
smoothSolver:  Solving for e, Initial residual = 0.0001415, Final residual = 2.53079e-16, No Iterations 7
smoothSolver:  Solving for p, Initial residual = 1.86939e-05, Final residual = 5.87126e-17, No Iterations 6
diagonal:  Solving for rho, Initial residual = 0, Final residual = 0, No Iterations 0
time step continuity errors : sum local = 1.5252e-16, global = -2.06509e-17, cumulative = -2.72392e-15
ExecutionTime = 0.38 s  ClockTime = 0 s

Time = 0.00059

Courant Number mean: 0.0127796 max: 0.294081
diagonal:  Solving for rho, Initial residual = 0, Final residual = 0, No Iterations 0
PIMPLE: iteration 1
smoothSolver:  Solving for Ux, Initial residual = 0.00318112, Final residual = 1.49641e-17, No Iterations 1
smoothSolver:  Solving for e, Initial residual = 0.0010789, Final residual = 9.59356e-16, No Iterations 7
smoothSolver:  Solving for p, Initial residual = 0.000291419, Final residual = 1.02699e-16, No Iterations 6
diagonal:  Solving for rho, Initial residual = 0, Final residual = 0, No Iterations 0
time step continuity errors : sum local = 2.22683e-16, global = -2.97274e-17, cumulative = -2.75364e-15
PIMPLE: iteration 2
smoothSolver:  Solving for Ux, Initial residual = 9.47979e-05, Final residual = 1.60856e-17, No Iterations 1
smoothSolver:  Solving for e, Initial residual = 0.000128625, Final residual = 2.67551e-16, No Iterations 7
smoothSolver:  Solving for p, Initial residual = 1.6809e-05, Final residual = 5.82269e-17, No Iterations 6
diagonal:  Solving for rho, Initial residual = 0, Final residual = 0, No Iterations 0
time step continuity errors : sum local = 1.57936e-16, global = -3.65533e-17, cumulative = -2.7902e-15
ExecutionTime = 0.39 s  ClockTime = 0 s

Time = 0.0006

Courant Number mean: 0.0129974 max: 0.294046
diagonal:  Solving for rho, Initial residual = 0, Final residual = 0, No Iterations 0
PIMPLE: iteration 1
smoothSolver:  Solving for Ux, Initial residual = 0.00313017, Final residual = 1.65993e-17, No Iterations 1
smoothSolver:  Solving for e, Initial residual = 0.00107793, Final residual = 9.35444e-16, No Iterations 7
smoothSolver:  Solving for p, Initial residual = 0.000291615, Final residual = 9.79485e-17, No Iterations 6
diagonal:  Solving for rho, Initial residual = 0, Final residual = 0, No Iterations 0
time step continuity errors : sum local = 2.13409e-16, global = -1.78315e-17, cumulative = -2.80803e-15
PIMPLE: iteration 2
smoothSolver:  Solving for Ux, Initial residual = 9.35107e-05, Final residual = 1.84418e-17, No Iterations 1
smoothSolver:  Solving for e, Initial residual = 0.000138426, Final residual = 2.52185e-16, No Iterations 7
smoothSolver:  Solving for p, Initial residual = 1.843e-05, Final residual = 6.26761e-17, No Iterations 6
diagonal:  Solving for rho, Initial residual = 0, Final residual = 0, No Iterations 0
time step continuity errors : sum local = 1.58258e-16, global = -4.71137e-17, cumulative = -2.85514e-15
ExecutionTime = 0.39 s  ClockTime = 0 s

Time = 0.00061

Courant Number mean: 0.0132168 max: 0.294005
diagonal:  Solving for rho, Initial residual = 0, Final residual = 0, No Iterations 0
PIMPLE: iteration 1
smoothSolver:  Solving for Ux, Initial residual = 0.00308107, Final residual = 1.64795e-17, No Iterations 1
smoothSolver:  Solving for e, Initial residual = 0.00107796, Final residual = 9.28581e-16, No Iterations 7
smoothSolver:  Solving for p, Initial residual = 0.000291793, Final residual = 9.98766e-17, No Iterations 6
diagonal:  Solving for rho, Initial residual = 0, Final residual = 0, No Iterations 0
time step continuity errors : sum local = 2.19988e-16, global = -9.76899e-18, cumulative = -2.86491e-15
PIMPLE: iteration 2
smoothSolver:  Solving for Ux, Initial residual = 9.17633e-05, Final residual = 1.44357e-17, No Iterations 1
smoothSolver:  Solving for e, Initial residual = 0.000131642, Final residual = 2.59025e-16, No Iterations 7
smoothSolver:  Solving for p, Initial residual = 1.67416e-05, Final residual = 5.93064e-17, No Iterations 6
diagonal:  Solving for rho, Initial residual = 0, Final residual = 0, No Iterations 0
time step continuity errors : sum local = 1.48043e-16, global = -2.72048e-17, cumulative = -2.89212e-15
ExecutionTime = 0.4 s  ClockTime = 0 s

Time = 0.00062

Courant Number mean: 0.0134345 max: 0.293974
diagonal:  Solving for rho, Initial residual = 0, Final residual = 0, No Iterations 0
PIMPLE: iteration 1
smoothSolver:  Solving for Ux, Initial residual = 0.00303212, Final residual = 2.15825e-17, No Iterations 1
smoothSolver:  Solving for e, Initial residual = 0.00107814, Final residual = 9.41003e-16, No Iterations 7
smoothSolver:  Solving for p, Initial residual = 0.000291986, Final residual = 1.00439e-16, No Iterations 6
diagonal:  Solving for rho, Initial residual = 0, Final residual = 0, No Iterations 0
time step continuity errors : sum local = 2.25181e-16, global = -2.65865e-17, cumulative = -2.9187e-15
PIMPLE: iteration 2
smoothSolver:  Solving for Ux, Initial residual = 8.95119e-05, Final residual = 1.61172e-17, No Iterations 1
smoothSolver:  Solving for e, Initial residual = 0.000138611, Final residual = 2.62956e-16, No Iterations 7
smoothSolver:  Solving for p, Initial residual = 1.85934e-05, Final residual = 5.81146e-17, No Iterations 6
diagonal:  Solving for rho, Initial residual = 0, Final residual = 0, No Iterations 0
time step continuity errors : sum local = 1.47994e-16, global = -2.10713e-17, cumulative = -2.93977e-15
ExecutionTime = 0.4 s  ClockTime = 0 s

Time = 0.00063

Courant Number mean: 0.0136541 max: 0.293978
diagonal:  Solving for rho, Initial residual = 0, Final residual = 0, No Iterations 0
PIMPLE: iteration 1
smoothSolver:  Solving for Ux, Initial residual = 0.00298611, Final residual = 1.60457e-17, No Iterations 1
smoothSolver:  Solving for e, Initial residual = 0.00107799, Final residual = 9.59778e-16, No Iterations 7
smoothSolver:  Solving for p, Initial residual = 0.000292196, Final residual = 9.81007e-17, No Iterations 6
[...]
smoothSolver:  Solving for p, Initial residual = 0.000436845, Final residual = 1.38279e-16, No Iterations 6
diagonal:  Solving for rho, Initial residual = 0, Final residual = 0, No Iterations 0
time step continuity errors : sum local = 2.18603e-16, global = -5.32472e-17, cumulative = 2.13808e-13
PIMPLE: iteration 2
smoothSolver:  Solving for Ux, Initial residual = 1.30813e-05, Final residual = 3.47165e-17, No Iterations 1
smoothSolver:  Solving for e, Initial residual = 9.84635e-05, Final residual = 2.5114e-16, No Iterations 7
smoothSolver:  Solving for p, Initial residual = 2.2999e-05, Final residual = 9.59947e-16, No Iterations 5
diagonal:  Solving for rho, Initial residual = 0, Final residual = 0, No Iterations 0
time step continuity errors : sum local = 1.16565e-15, global = 8.06745e-16, cumulative = 2.14615e-13
ExecutionTime = 3.43 s  ClockTime = 3 s

Time = 0.00686

Courant Number mean: 0.150622 max: 0.293323
diagonal:  Solving for rho, Initial residual = 0, Final residual = 0, No Iterations 0
PIMPLE: iteration 1
smoothSolver:  Solving for Ux, Initial residual = 0.000522905, Final residual = 3.15213e-17, No Iterations 1
smoothSolver:  Solving for e, Initial residual = 0.000932611, Final residual = 9.85149e-16, No Iterations 7
smoothSolver:  Solving for p, Initial residual = 0.000437217, Final residual = 1.38545e-16, No Iterations 6
diagonal:  Solving for rho, Initial residual = 0, Final residual = 0, No Iterations 0
time step continuity errors : sum local = 2.189e-16, global = -5.85892e-17, cumulative = 2.14556e-13
PIMPLE: iteration 2
smoothSolver:  Solving for Ux, Initial residual = 1.31226e-05, Final residual = 3.23095e-17, No Iterations 1
smoothSolver:  Solving for e, Initial residual = 8.78525e-05, Final residual = 2.42766e-16, No Iterations 7
smoothSolver:  Solving for p, Initial residual = 2.00783e-05, Final residual = 7.96167e-17, No Iterations 6
diagonal:  Solving for rho, Initial residual = 0, Final residual = 0, No Iterations 0
time step continuity errors : sum local = 1.49973e-16, global = -1.83509e-17, cumulative = 2.14538e-13
ExecutionTime = 3.44 s  ClockTime = 3 s

Time = 0.00687

Courant Number mean: 0.150841 max: 0.293323
diagonal:  Solving for rho, Initial residual = 0, Final residual = 0, No Iterations 0
PIMPLE: iteration 1
smoothSolver:  Solving for Ux, Initial residual = 0.000522736, Final residual = 3.22689e-17, No Iterations 1
smoothSolver:  Solving for e, Initial residual = 0.000932289, Final residual = 9.98598e-16, No Iterations 7
smoothSolver:  Solving for p, Initial residual = 0.000437574, Final residual = 1.39549e-16, No Iterations 6
diagonal:  Solving for rho, Initial residual = 0, Final residual = 0, No Iterations 0
time step continuity errors : sum local = 2.20532e-16, global = -5.00321e-17, cumulative = 2.14488e-13
PIMPLE: iteration 2
smoothSolver:  Solving for Ux, Initial residual = 1.30514e-05, Final residual = 3.39303e-17, No Iterations 1
smoothSolver:  Solving for e, Initial residual = 9.44308e-05, Final residual = 2.52035e-16, No Iterations 7
smoothSolver:  Solving for p, Initial residual = 2.20644e-05, Final residual = 8.5776e-17, No Iterations 6
diagonal:  Solving for rho, Initial residual = 0, Final residual = 0, No Iterations 0
time step continuity errors : sum local = 1.63204e-16, global = -2.35198e-17, cumulative = 2.14464e-13
ExecutionTime = 3.44 s  ClockTime = 3 s

Time = 0.00688

Courant Number mean: 0.151062 max: 0.293323
diagonal:  Solving for rho, Initial residual = 0, Final residual = 0, No Iterations 0
PIMPLE: iteration 1
smoothSolver:  Solving for Ux, Initial residual = 0.000522678, Final residual = 3.27904e-17, No Iterations 1
smoothSolver:  Solving for e, Initial residual = 0.000932191, Final residual = 9.98037e-16, No Iterations 7
smoothSolver:  Solving for p, Initial residual = 0.000437945, Final residual = 1.42008e-16, No Iterations 6
diagonal:  Solving for rho, Initial residual = 0, Final residual = 0, No Iterations 0
time step continuity errors : sum local = 2.20878e-16, global = -7.27357e-17, cumulative = 2.14392e-13
PIMPLE: iteration 2
smoothSolver:  Solving for Ux, Initial residual = 1.31229e-05, Final residual = 3.41236e-17, No Iterations 1
smoothSolver:  Solving for e, Initial residual = 9.33405e-05, Final residual = 2.53382e-16, No Iterations 7
smoothSolver:  Solving for p, Initial residual = 2.08627e-05, Final residual = 9.46995e-16, No Iterations 5
diagonal:  Solving for rho, Initial residual = 0, Final residual = 0, No Iterations 0
time step continuity errors : sum local = 1.14458e-15, global = 8.05608e-16, cumulative = 2.15197e-13
ExecutionTime = 3.45 s  ClockTime = 3 s

Time = 0.00689

Courant Number mean: 0.151282 max: 0.293323
diagonal:  Solving for rho, Initial residual = 0, Final residual = 0, No Iterations 0
PIMPLE: iteration 1
smoothSolver:  Solving for Ux, Initial residual = 0.000522538, Final residual = 3.29663e-17, No Iterations 1
smoothSolver:  Solving for e, Initial residual = 0.000931907, Final residual = 9.93735e-16, No Iterations 7
smoothSolver:  Solving for p, Initial residual = 0.000438305, Final residual = 1.38601e-16, No Iterations 6
diagonal:  Solving for rho, Initial residual = 0, Final residual = 0, No Iterations 0
time step continuity errors : sum local = 2.11134e-16, global = -6.0172e-17, cumulative = 2.15137e-13
PIMPLE: iteration 2
smoothSolver:  Solving for Ux, Initial residual = 1.28757e-05, Final residual = 3.27154e-17, No Iterations 1
smoothSolver:  Solving for e, Initial residual = 9.586e-05, Final residual = 2.54331e-16, No Iterations 7
smoothSolver:  Solving for p, Initial residual = 2.24557e-05, Final residual = 8.00918e-17, No Iterations 6
diagonal:  Solving for rho, Initial residual = 0, Final residual = 0, No Iterations 0
time step continuity errors : sum local = 1.57714e-16, global = -2.77241e-17, cumulative = 2.15109e-13
ExecutionTime = 3.45 s  ClockTime = 3 s

Time = 0.0069

Courant Number mean: 0.151502 max: 0.293322
diagonal:  Solving for rho, Initial residual = 0, Final residual = 0, No Iterations 0
PIMPLE: iteration 1
smoothSolver:  Solving for Ux, Initial residual = 0.000522466, Final residual = 3.25616e-17, No Iterations 1
smoothSolver:  Solving for e, Initial residual = 0.000931743, Final residual = 9.89125e-16, No Iterations 7
smoothSolver:  Solving for p, Initial residual = 0.000438683, Final residual = 1.398e-16, No Iterations 6
diagonal:  Solving for rho, Initial residual = 0, Final residual = 0, No Iterations 0
time step continuity errors : sum local = 2.14522e-16, global = -5.15902e-17, cumulative = 2.15058e-13
PIMPLE: iteration 2
smoothSolver:  Solving for Ux, Initial residual = 1.32011e-05, Final residual = 3.23462e-17, No Iterations 1
smoothSolver:  Solving for e, Initial residual = 9.25934e-05, Final residual = 2.4802e-16, No Iterations 7
smoothSolver:  Solving for p, Initial residual = 2.07875e-05, Final residual = 8.01379e-17, No Iterations 6
diagonal:  Solving for rho, Initial residual = 0, Final residual = 0, No Iterations 0
time step continuity errors : sum local = 1.53163e-16, global = -2.69822e-17, cumulative = 2.15031e-13
ExecutionTime = 3.45 s  ClockTime = 3 s

Time = 0.00691

Courant Number mean: 0.151722 max: 0.293323
diagonal:  Solving for rho, Initial residual = 0, Final residual = 0, No Iterations 0
PIMPLE: iteration 1
smoothSolver:  Solving for Ux, Initial residual = 0.00052235, Final residual = 3.41093e-17, No Iterations 1
smoothSolver:  Solving for e, Initial residual = 0.00093152, Final residual = 9.83988e-16, No Iterations 7
smoothSolver:  Solving for p, Initial residual = 0.000439042, Final residual = 1.43148e-16, No Iterations 6
diagonal:  Solving for rho, Initial residual = 0, Final residual = 0, No Iterations 0
time step continuity errors : sum local = 2.20631e-16, global = -6.14581e-17, cumulative = 2.14969e-13
PIMPLE: iteration 2
smoothSolver:  Solving for Ux, Initial residual = 1.28001e-05, Final residual = 3.40916e-17, No Iterations 1
smoothSolver:  Solving for e, Initial residual = 8.83796e-05, Final residual = 2.45331e-16, No Iterations 7
smoothSolver:  Solving for p, Initial residual = 2.00438e-05, Final residual = 9.81232e-16, No Iterations 5
diagonal:  Solving for rho, Initial residual = 0, Final residual = 0, No Iterations 0
time step continuity errors : sum local = 1.18553e-15, global = 8.34494e-16, cumulative = 2.15804e-13
ExecutionTime = 3.46 s  ClockTime = 3 s

Time = 0.00692

Courant Number mean: 0.151942 max: 0.293322
diagonal:  Solving for rho, Initial residual = 0, Final residual = 0, No Iterations 0
PIMPLE: iteration 1
smoothSolver:  Solving for Ux, Initial residual = 0.000522232, Final residual = 3.23306e-17, No Iterations 1
smoothSolver:  Solving for e, Initial residual = 0.000931292, Final residual = 9.98799e-16, No Iterations 7
smoothSolver:  Solving for p, Initial residual = 0.000439413, Final residual = 1.41927e-16, No Iterations 6
diagonal:  Solving for rho, Initial residual = 0, Final residual = 0, No Iterations 0
time step continuity errors : sum local = 2.13038e-16, global = -5.5102e-17, cumulative = 2.15749e-13
PIMPLE: iteration 2
smoothSolver:  Solving for Ux, Initial residual = 1.31144e-05, Final residual = 3.46421e-17, No Iterations 1
smoothSolver:  Solving for e, Initial residual = 9.71875e-05, Final residual = 2.53072e-16, No Iterations 7
smoothSolver:  Solving for p, Initial residual = 2.24381e-05, Final residual = 9.7671e-16, No Iterations 5
diagonal:  Solving for rho, Initial residual = 0, Final residual = 0, No Iterations 0
time step continuity errors : sum local = 1.17438e-15, global = 8.06869e-16, cumulative = 2.16556e-13
ExecutionTime = 3.46 s  ClockTime = 3 s

Time = 0.00693

Courant Number mean: 0.152163 max: 0.293322
diagonal:  Solving for rho, Initial residual = 0, Final residual = 0, No Iterations 0
PIMPLE: iteration 1
smoothSolver:  Solving for Ux, Initial residual = 0.000522171, Final residual = 3.2068e-17, No Iterations 1
smoothSolver:  Solving for e, Initial residual = 0.000931129, Final residual = 9.97433e-16, No Iterations 7
smoothSolver:  Solving for p, Initial residual = 0.000439781, Final residual = 1.35478e-16, No Iterations 6
diagonal:  Solving for rho, Initial residual = 0, Final residual = 0, No Iterations 0
time step continuity errors : sum local = 2.10862e-16, global = -5.52504e-17, cumulative = 2.165e-13
PIMPLE: iteration 2
smoothSolver:  Solving for Ux, Initial residual = 1.29189e-05, Final residual = 3.23777e-17, No Iterations 1
smoothSolver:  Solving for e, Initial residual = 9.02568e-05, Final residual = 2.50852e-16, No Iterations 7
smoothSolver:  Solving for p, Initial residual = 2.10245e-05, Final residual = 7.61129e-17, No Iterations 6
diagonal:  Solving for rho, Initial residual = 0, Final residual = 0, No Iterations 0
time step continuity errors : sum local = 1.48192e-16, global = -2.0824e-17, cumulative = 2.1648e-13
ExecutionTime = 3.47 s  ClockTime = 3 s

Time = 0.00694

Courant Number mean: 0.152382 max: 0.293322
diagonal:  Solving for rho, Initial residual = 0, Final residual = 0, No Iterations 0
PIMPLE: iteration 1
smoothSolver:  Solving for Ux, Initial residual = 0.000522037, Final residual = 3.18913e-17, No Iterations 1
smoothSolver:  Solving for e, Initial residual = 0.000930859, Final residual = 9.85798e-16, No Iterations 7
smoothSolver:  Solving for p, Initial residual = 0.000440151, Final residual = 1.44818e-16, No Iterations 6
diagonal:  Solving for rho, Initial residual = 0, Final residual = 0, No Iterations 0
time step continuity errors : sum local = 2.19963e-16, global = -6.61323e-17, cumulative = 2.16413e-13
PIMPLE: iteration 2
smoothSolver:  Solving for Ux, Initial residual = 1.31253e-05, Final residual = 3.2269e-17, No Iterations 1
smoothSolver:  Solving for e, Initial residual = 9.42774e-05, Final residual = 2.48165e-16, No Iterations 7
smoothSolver:  Solving for p, Initial residual = 2.19158e-05, Final residual = 8.11136e-17, No Iterations 6
diagonal:  Solving for rho, Initial residual = 0, Final residual = 0, No Iterations 0
time step continuity errors : sum local = 1.4787e-16, global = -3.48469e-17, cumulative = 2.16379e-13
ExecutionTime = 3.47 s  ClockTime = 3 s

Time = 0.00695

Courant Number mean: 0.152603 max: 0.293322
diagonal:  Solving for rho, Initial residual = 0, Final residual = 0, No Iterations 0
PIMPLE: iteration 1
smoothSolver:  Solving for Ux, Initial residual = 0.000521976, Final residual = 3.39384e-17, No Iterations 1
smoothSolver:  Solving for e, Initial residual = 0.000930723, Final residual = 9.88913e-16, No Iterations 7
smoothSolver:  Solving for p, Initial residual = 0.00044052, Final residual = 1.3954e-16, No Iterations 6
diagonal:  Solving for rho, Initial residual = 0, Final residual = 0, No Iterations 0
time step continuity errors : sum local = 2.11975e-16, global = -5.29009e-17, cumulative = 2.16326e-13
PIMPLE: iteration 2
smoothSolver:  Solving for Ux, Initial residual = 1.29908e-05, Final residual = 3.30519e-17, No Iterations 1
smoothSolver:  Solving for e, Initial residual = 8.7504e-05, Final residual = 2.46438e-16, No Iterations 7
smoothSolver:  Solving for p, Initial residual = 1.97519e-05, Final residual = 9.6321e-16, No Iterations 5
diagonal:  Solving for rho, Initial residual = 0, Final residual = 0, No Iterations 0
time step continuity errors : sum local = 1.16293e-15, global = 8.1649e-16, cumulative = 2.17142e-13
ExecutionTime = 3.47 s  ClockTime = 3 s

Time = 0.00696

Courant Number mean: 0.152822 max: 0.293321
diagonal:  Solving for rho, Initial residual = 0, Final residual = 0, No Iterations 0
PIMPLE: iteration 1
smoothSolver:  Solving for Ux, Initial residual = 0.000521804, Final residual = 3.48897e-17, No Iterations 1
smoothSolver:  Solving for e, Initial residual = 0.000930368, Final residual = 9.88378e-16, No Iterations 7
smoothSolver:  Solving for p, Initial residual = 0.000440876, Final residual = 1.41291e-16, No Iterations 6
diagonal:  Solving for rho, Initial residual = 0, Final residual = 0, No Iterations 0
time step continuity errors : sum local = 2.18232e-16, global = -7.75089e-17, cumulative = 2.17065e-13
PIMPLE: iteration 2
smoothSolver:  Solving for Ux, Initial residual = 1.2998e-05, Final residual = 3.33418e-17, No Iterations 1
smoothSolver:  Solving for e, Initial residual = 9.79473e-05, Final residual = 2.44902e-16, No Iterations 7
smoothSolver:  Solving for p, Initial residual = 2.32751e-05, Final residual = 7.92302e-17, No Iterations 6
diagonal:  Solving for rho, Initial residual = 0, Final residual = 0, No Iterations 0
time step continuity errors : sum local = 1.49552e-16, global = -4.49374e-17, cumulative = 2.1702e-13
ExecutionTime = 3.48 s  ClockTime = 3 s

Time = 0.00697

Courant Number mean: 0.153043 max: 0.293322
diagonal:  Solving for rho, Initial residual = 0, Final residual = 0, No Iterations 0
PIMPLE: iteration 1
smoothSolver:  Solving for Ux, Initial residual = 0.000521779, Final residual = 3.39114e-17, No Iterations 1
smoothSolver:  Solving for e, Initial residual = 0.000930268, Final residual = 2.5261e-16, No Iterations 8
smoothSolver:  Solving for p, Initial residual = 0.000441257, Final residual = 1.40835e-16, No Iterations 6
diagonal:  Solving for rho, Initial residual = 0, Final residual = 0, No Iterations 0
time step continuity errors : sum local = 2.17564e-16, global = -5.75505e-17, cumulative = 2.16962e-13
PIMPLE: iteration 2
smoothSolver:  Solving for Ux, Initial residual = 1.31505e-05, Final residual = 3.38246e-17, No Iterations 1
smoothSolver:  Solving for e, Initial residual = 8.98112e-05, Final residual = 2.52082e-16, No Iterations 7
smoothSolver:  Solving for p, Initial residual = 1.99075e-05, Final residual = 8.19409e-17, No Iterations 6
diagonal:  Solving for rho, Initial residual = 0, Final residual = 0, No Iterations 0
time step continuity errors : sum local = 1.53905e-16, global = -3.35113e-17, cumulative = 2.16929e-13
ExecutionTime = 3.48 s  ClockTime = 3 s

Time = 0.00698

Courant Number mean: 0.153262 max: 0.293322
diagonal:  Solving for rho, Initial residual = 0, Final residual = 0, No Iterations 0
PIMPLE: iteration 1
smoothSolver:  Solving for Ux, Initial residual = 0.000521617, Final residual = 3.29866e-17, No Iterations 1
smoothSolver:  Solving for e, Initial residual = 0.000929938, Final residual = 9.95882e-16, No Iterations 7
smoothSolver:  Solving for p, Initial residual = 0.000441617, Final residual = 1.39463e-16, No Iterations 6
diagonal:  Solving for rho, Initial residual = 0, Final residual = 0, No Iterations 0
time step continuity errors : sum local = 2.14992e-16, global = -5.79462e-17, cumulative = 2.16871e-13
PIMPLE: iteration 2
smoothSolver:  Solving for Ux, Initial residual = 1.29578e-05, Final residual = 3.36259e-17, No Iterations 1
smoothSolver:  Solving for e, Initial residual = 9.26436e-05, Final residual = 2.4994e-16, No Iterations 7
smoothSolver:  Solving for p, Initial residual = 2.1636e-05, Final residual = 9.78698e-16, No Iterations 5
diagonal:  Solving for rho, Initial residual = 0, Final residual = 0, No Iterations 0
time step continuity errors : sum local = 1.16592e-15, global = 8.28435e-16, cumulative = 2.17699e-13
ExecutionTime = 3.49 s  ClockTime = 3 s

Time = 0.00699

Courant Number mean: 0.153483 max: 0.293321
diagonal:  Solving for rho, Initial residual = 0, Final residual = 0, No Iterations 0
PIMPLE: iteration 1
smoothSolver:  Solving for Ux, Initial residual = 0.000521571, Final residual = 3.45422e-17, No Iterations 1
smoothSolver:  Solving for e, Initial residual = 0.00092982, Final residual = 9.97653e-16, No Iterations 7
smoothSolver:  Solving for p, Initial residual = 0.000441999, Final residual = 1.40721e-16, No Iterations 6
diagonal:  Solving for rho, Initial residual = 0, Final residual = 0, No Iterations 0
time step continuity errors : sum local = 2.08685e-16, global = -5.40139e-17, cumulative = 2.17645e-13
PIMPLE: iteration 2
smoothSolver:  Solving for Ux, Initial residual = 1.31146e-05, Final residual = 3.32655e-17, No Iterations 1
smoothSolver:  Solving for e, Initial residual = 9.56569e-05, Final residual = 2.52905e-16, No Iterations 7
smoothSolver:  Solving for p, Initial residual = 2.17723e-05, Final residual = 9.65408e-16, No Iterations 5
diagonal:  Solving for rho, Initial residual = 0, Final residual = 0, No Iterations 0
time step continuity errors : sum local = 1.15761e-15, global = 7.48502e-16, cumulative = 2.18394e-13
ExecutionTime = 3.49 s  ClockTime = 3 s

Time = 0.007

Courant Number mean: 0.153703 max: 0.293321
diagonal:  Solving for rho, Initial residual = 0, Final residual = 0, No Iterations 0
PIMPLE: iteration 1
smoothSolver:  Solving for Ux, Initial residual = 0.000521484, Final residual = 3.56335e-17, No Iterations 1
smoothSolver:  Solving for e, Initial residual = 0.000929596, Final residual = 9.8945e-16, No Iterations 7
smoothSolver:  Solving for p, Initial residual = 0.000442369, Final residual = 1.38431e-16, No Iterations 6
diagonal:  Solving for rho, Initial residual = 0, Final residual = 0, No Iterations 0
time step continuity errors : sum local = 2.12717e-16, global = -5.76494e-17, cumulative = 2.18336e-13
PIMPLE: iteration 2
smoothSolver:  Solving for Ux, Initial residual = 1.27564e-05, Final residual = 3.4611e-17, No Iterations 1
smoothSolver:  Solving for e, Initial residual = 9.39185e-05, Final residual = 2.53647e-16, No Iterations 7
smoothSolver:  Solving for p, Initial residual = 2.21275e-05, Final residual = 8.14521e-17, No Iterations 6
diagonal:  Solving for rho, Initial residual = 0, Final residual = 0, No Iterations 0
time step continuity errors : sum local = 1.54399e-16, global = -2.12445e-17, cumulative = 2.18315e-13
ExecutionTime = 3.5 s  ClockTime = 3 s

--> FOAM Warning :     functionObjects::mag mag(U) cannot find required object U of type volScalarField
--> FOAM Warning :     functionObjects::mag mag(U) cannot find required object U of type surfaceScalarField
    functionObjects::mag mag(U) writing field: mag(U)
End

